                                   MODFLOW 6
                U.S. GEOLOGICAL SURVEY MODULAR HYDROLOGIC MODEL
                          GROUNDWATER FLOW MODEL (GWF)
                            VERSION 6.3.0 03/04/2022

   MODFLOW 6 compiled Mar 02 2022 15:29:04 with Intel(R) Fortran Intel(R) 64
   Compiler Classic for applications running on Intel(R) 64, Version 2021.5.0
                             Build 20211109_000000

This software has been approved for release by the U.S. Geological 
Survey (USGS). Although the software has been subjected to rigorous 
review, the USGS reserves the right to update the software as needed 
pursuant to further analysis and review. No warranty, expressed or 
implied, is made by the USGS or the U.S. Government as to the 
functionality of the software and related material nor shall the 
fact of release constitute any such warranty. Furthermore, the 
software is released on condition that neither the USGS nor the U.S. 
Government shall be held liable for any damages resulting from its 
authorized or unauthorized use. Also refer to the USGS Water 
Resources Software User Rights Notice for complete use, copyright, 
and distribution information.


As a work of the United States Government, this USGS product is 
in the public domain within the United States. You can copy, 
modify, distribute, and perform the work, even for commercial 
purposes, all without asking permission. Additionally, USGS 
waives copyright and related rights in the work worldwide 
through CC0 1.0 Universal Public Domain Dedication 
(https://creativecommons.org/publicdomain/zero/1.0/).

The following GNU Lesser General Public License (LGPL) libraries
are used in this USGS product:

    SPARSKIT version 2.0
      ilut, luson, and qsplit 
      (https://www-users.cse.umn.edu/~saad/software/SPARSKIT/)

    RCM - Reverse Cuthill McKee Ordering
      (https://people.math.sc.edu/Burkardt/f_src/rcm/rcm.html)

    BLAS - Basic Linear Algebra Subprograms Level 1
      (https://people.math.sc.edu/Burkardt/f_src/blas1_d/blas1_d.html)

    SPARSEKIT - Sparse Matrix Utility Package
      amux, dperm, dvperm, rperm, and cperm
      (https://people.sc.fsu.edu/~jburkardt/f77_src/sparsekit/sparsekit.html)

The following BSD-3 License libraries are used in this USGS product:

    Modern Fortran DAG Library
      Copyright (c) 2018, Jacob Williams
      All rights reserved.
      (https://github.com/jacobwilliams/daglib)

MODFLOW 6 compiler options: /Isrc\libmf6core.a.p /Isrc /I..\src
/Isrc\libmf6_external.a.p /MTd /nologo /warn:general /warn:truncated_source
/stand:f08 /Zi /traceback /O2 /Zi /fpe:0 /fpp /Qdiag-disable:7416
/Qdiag-disable:7025 /Qdiag-disable:5268
/Fdsrc\libmf6core.a.p\Utilities_compilerversion.F90.pdb
/module:src\libmf6core.a.p
/Fosrc/libmf6core.a.p/Utilities_compilerversion.F90.obj /c

System command used to initiate simulation:
C:\models\python-for-hydrology_mu\notebooks\part1_flopy\data\mumodel_mf6\mf6.exe

MODFLOW was compiled using uniform precision.

Real Variables
  KIND: 8
  TINY (smallest non-zero value):    2.225074-308
  HUGE (largest value):    1.797693+308
  PRECISION: 15
  BIT SIZE: 64

Integer Variables
  KIND: 4
  HUGE (largest value): 2147483647
  BIT SIZE: 32

Long Integer Variables
  KIND: 8
  HUGE (largest value): 9223372036854775807
  BIT SIZE: 64

Logical Variables
  KIND: 4
  BIT SIZE: 32
 

 OPENED mumodel.dis
 FILE TYPE:DIS6                   UNIT 1005   STATUS:OLD                 
 FORMAT:FORMATTED              ACCESS:SEQUENTIAL          
 ACTION:READ                


 OPENED mumodel.ic
 FILE TYPE:IC6                    UNIT 1006   STATUS:OLD                 
 FORMAT:FORMATTED              ACCESS:SEQUENTIAL          
 ACTION:READ                


 OPENED mumodel.npf
 FILE TYPE:NPF6                   UNIT 1007   STATUS:OLD                 
 FORMAT:FORMATTED              ACCESS:SEQUENTIAL          
 ACTION:READ                


 OPENED mumodel.sto
 FILE TYPE:STO6                   UNIT 1008   STATUS:OLD                 
 FORMAT:FORMATTED              ACCESS:SEQUENTIAL          
 ACTION:READ                


 OPENED mumodel.oc
 FILE TYPE:OC6                    UNIT 1009   STATUS:OLD                 
 FORMAT:FORMATTED              ACCESS:SEQUENTIAL          
 ACTION:READ                


 OPENED mumodel.wel
 FILE TYPE:WEL6                   UNIT 1010   STATUS:OLD                 
 FORMAT:FORMATTED              ACCESS:SEQUENTIAL          
 ACTION:READ                


 OPENED mumodel.rch
 FILE TYPE:RCH6                   UNIT 1011   STATUS:OLD                 
 FORMAT:FORMATTED              ACCESS:SEQUENTIAL          
 ACTION:READ                


 OPENED mumodel.ib.ibound.chd
 FILE TYPE:CHD6                   UNIT 1012   STATUS:OLD                 
 FORMAT:FORMATTED              ACCESS:SEQUENTIAL          
 ACTION:READ                


 DIS -- STRUCTURED GRID DISCRETIZATION PACKAGE, VERSION 2 : 3/27/2014 - INPUT READ FROM UNIT 1005


 # DIS6 input file, prepared by MF5to6 on 1/30/2024 at 15:47:34.
 PROCESSING DISCRETIZATION OPTIONS
    UNKNOWN UNIT: 
    UNDEFINED
    SETTING TO: 
    UNDEFINED
 END OF DISCRETIZATION OPTIONS
 MODEL LENGTH UNIT IS UNDEFINED
 PROCESSING DISCRETIZATION DIMENSIONS
    NLAY =       1
    NROW =      21
    NCOL =       9
 END OF DISCRETIZATION DIMENSIONS
 PROCESSING GRIDDATA

                     DELR =   500.0000    

                     DELC =   500.0000    

 TOP ELEVATION OF LAYER 1 =   1100.000    

   MODEL LAYER BOTTOM EL. =   980.0000     FOR LAYER 1
 END PROCESSING GRIDDATA

 NPF -- NODE PROPERTY FLOW PACKAGE, VERSION 1, 3/30/2015 INPUT READ FROM UNIT 1007


 # File generated by Flopy version 3.5.0 on 02/01/2024 at 17:26:07.
 PROCESSING NPF OPTIONS
    CELL-BY-CELL FLOW INFORMATION WILL BE SAVED TO BINARY FILE WHENEVER ICBCFL IS NOT ZERO.
    VERTICAL CONDUCTANCE VARIES WITH WATER TABLE.
    VERTICAL CONDUCTANCE ACCOUNTS FOR DEWATERED PORTION OF AN UNDERLYING CELL.
    VERTICAL FLOW WILL BE ADJUSTED FOR PERCHED CONDITIONS.
 END OF NPF OPTIONS

 WEL   -- WEL PACKAGE, VERSION 8, 2/22/2014 INPUT READ FROM UNIT 1010
 # WEL6 input file, prepared by MF5to6 on 1/30/2024 at 15:47:34.

 PROCESSING WEL OPTIONS
    AUXILIARY WEL VARIABLE: IFACE           
    LISTS OF WEL CELLS WILL BE PRINTED.
    WEL FLOWS WILL BE PRINTED TO LISTING FILE.
    FLOWS WILL BE SAVED TO BUDGET FILE SPECIFIED IN OUTPUT CONTROL
 END OF WEL OPTIONS

 PROCESSING WEL DIMENSIONS
    MAXBOUND =       3
 END OF WEL DIMENSIONS

 RCH   -- RCH PACKAGE, VERSION 8, 2/22/2014 INPUT READ FROM UNIT 1011
 # File generated by Flopy version 3.5.0 on 02/01/2024 at 17:40:22.

 PROCESSING RCH OPTIONS
    RECHARGE INPUT WILL BE READ AS ARRAY(S).
    FLOWS WILL BE SAVED TO BUDGET FILE SPECIFIED IN OUTPUT CONTROL
 END OF RCHA OPTIONS

 CHD   -- CHD PACKAGE, VERSION 8, 2/22/2014 INPUT READ FROM UNIT 1012
 # CHD6 input file, prepared by MF5to6 on 1/30/2024 at 15:47:34.

 PROCESSING CHD OPTIONS
    LISTS OF CHD CELLS WILL BE PRINTED.
    CHD FLOWS WILL BE PRINTED TO LISTING FILE.
 END OF CHD OPTIONS

 PROCESSING CHD DIMENSIONS
    MAXBOUND =      18
 END OF CHD DIMENSIONS

 IC -- INITIAL CONDITIONS PACKAGE, VERSION 8, 3/28/2015 INPUT READ FROM UNIT 1006
 # IC6 input file, prepared by MF5to6 on 1/30/2024 at 15:47:34.
 PROCESSING IC OPTIONS
 END OF IC OPTIONS
 PROCESSING GRIDDATA

     INITIAL HEAD FOR LAYER 1

               1          2          3          4          5          6          7          8          9
 .......................................................................................................
   1   1.000E+03  1.000E+03  1.000E+03  1.000E+03  1.000E+03  1.000E+03  1.000E+03  1.000E+03  1.000E+03
   2   1.100E+03  1.100E+03  1.100E+03  1.100E+03  1.100E+03  1.100E+03  1.100E+03  1.100E+03  1.100E+03
   3   1.100E+03  1.100E+03  1.100E+03  1.100E+03  1.100E+03  1.100E+03  1.100E+03  1.100E+03  1.100E+03
   4   1.100E+03  1.100E+03  1.100E+03  1.100E+03  1.100E+03  1.100E+03  1.100E+03  1.100E+03  1.100E+03
   5   1.100E+03  1.100E+03  1.100E+03  1.100E+03  1.100E+03  1.100E+03  1.100E+03  1.100E+03  1.100E+03
   6   1.100E+03  1.100E+03  1.100E+03  1.100E+03  1.100E+03  1.100E+03  1.100E+03  1.100E+03  1.100E+03
   7   1.100E+03  1.100E+03  1.100E+03  1.100E+03  1.100E+03  1.100E+03  1.100E+03  1.100E+03  1.100E+03
   8   1.100E+03  1.100E+03  1.100E+03  1.100E+03  1.100E+03  1.100E+03  1.100E+03  1.100E+03  1.100E+03
   9   1.100E+03  1.100E+03  1.100E+03  1.100E+03  1.100E+03  1.100E+03  1.100E+03  1.100E+03  1.100E+03
  10   1.100E+03  1.100E+03  1.100E+03  1.100E+03  1.100E+03  1.100E+03  1.100E+03  1.100E+03  1.100E+03
  11   1.100E+03  1.100E+03  1.100E+03  1.100E+03  1.100E+03  1.100E+03  1.100E+03  1.100E+03  1.100E+03
  12   1.100E+03  1.100E+03  1.100E+03  1.100E+03  1.100E+03  1.100E+03  1.100E+03  1.100E+03  1.100E+03
  13   1.100E+03  1.100E+03  1.100E+03  1.100E+03  1.100E+03  1.100E+03  1.100E+03  1.100E+03  1.100E+03
  14   1.100E+03  1.100E+03  1.100E+03  1.100E+03  1.100E+03  1.100E+03  1.100E+03  1.100E+03  1.100E+03
  15   1.100E+03  1.100E+03  1.100E+03  1.100E+03  1.100E+03  1.100E+03  1.100E+03  1.100E+03  1.100E+03
  16   1.100E+03  1.100E+03  1.100E+03  1.100E+03  1.100E+03  1.100E+03  1.100E+03  1.100E+03  1.100E+03
  17   1.100E+03  1.100E+03  1.100E+03  1.100E+03  1.100E+03  1.100E+03  1.100E+03  1.100E+03  1.100E+03
  18   1.100E+03  1.100E+03  1.100E+03  1.100E+03  1.100E+03  1.100E+03  1.100E+03  1.100E+03  1.100E+03
  19   1.100E+03  1.100E+03  1.100E+03  1.100E+03  1.100E+03  1.100E+03  1.100E+03  1.100E+03  1.100E+03
  20   1.100E+03  1.100E+03  1.100E+03  1.100E+03  1.100E+03  1.100E+03  1.100E+03  1.100E+03  1.100E+03
  21   1.000E+03  1.000E+03  1.000E+03  1.000E+03  1.000E+03  1.000E+03  1.000E+03  1.000E+03  1.000E+03
 END PROCESSING GRIDDATA
 PROCESSING GRIDDATA

                ICELLTYPE = 1 FOR LAYER 1

                        K =   50.00000    
 K33 not provided.  Assuming K33 = K.
 K22 not provided.  Assuming K22 = K.
 END PROCESSING GRIDDATA

 STO -- STORAGE PACKAGE, VERSION 1, 5/19/2014 INPUT READ FROM UNIT 1008


 # STO6 input file, prepared by MF5to6 on 1/30/2024 at 15:47:34.
 PROCESSING STORAGE OPTIONS
 END OF STORAGE OPTIONS
 PROCESSING GRIDDATA

                 ICONVERT = 1 FOR LAYER 1

         SPECIFIC STORAGE =  0.1000000     FOR LAYER 1

           SPECIFIC YIELD =  0.1000000     FOR LAYER 1
 END PROCESSING GRIDDATA
    BINARY GRID INFORMATION WILL BE WRITTEN TO:
      UNIT NUMBER: 1014
      FILE NAME: C:\models\python-for-hydrology_mu\notebooks\part1_flopy\data\mumodel_mf6\mumodel.dis.grb

 OPENED C:\models\python-for-hydrology_mu\notebooks\part1_flopy\data\mumodel_mf6\mumodel.dis.grb
 FILE TYPE:DATA(BINARY)   UNIT 1014   STATUS:REPLACE             
 FORMAT:UNFORMATTED            ACCESS:STREAM              
 ACTION:READWRITE           

      THE LAST TIME STEP WILL BE PRINTED
      THE LAST TIME STEP WILL BE PRINTED
 # OC6 input file, prepared by MF5to6 on 1/30/2024 at 15:47:34.

 PROCESSING OC OPTIONS

    BUDGET INFORMATION WILL BE WRITTEN TO:
      UNIT NUMBER: 1015
      FILE NAME: mumodel_7-2b.cbb

 OPENED mumodel_7-2b.cbb
 FILE TYPE:DATA(BINARY)   UNIT 1015   STATUS:REPLACE             
 FORMAT:UNFORMATTED            ACCESS:STREAM              
 ACTION:READWRITE           

    HEAD INFORMATION WILL BE WRITTEN TO:
      UNIT NUMBER: 1016
      FILE NAME: mumodel_7-2b.hds

 OPENED mumodel_7-2b.hds
 FILE TYPE:DATA(BINARY)   UNIT 1016   STATUS:REPLACE             
 FORMAT:UNFORMATTED            ACCESS:STREAM              
 ACTION:READWRITE           

 END OF OC OPTIONS

start timestep kper="1" kstp="1" mode="normal"


 BEGIN READING OUTPUT CONTROL FOR STRESS PERIOD 1
      ALL TIME STEPS WILL BE SAVED
      ALL TIME STEPS WILL BE PRINTED
      ALL TIME STEPS WILL BE SAVED

 END READING OUTPUT CONTROL FOR STRESS PERIOD 1


 PROCESSING STORAGE PERIOD DATA
 END PROCESSING STORAGE PERIOD DATA


 STRESS PERIOD 1 IS STEADY-STATE

 --------------------------------------------------------------------
  WEL NO.    LAYER    ROW     COL     STRESS RATE         IFACE      
 --------------------------------------------------------------------
     1         1       5       5     0.00000000       0.00000000     
     2         1      11       5     0.00000000       0.00000000     
     3         1       5       5     0.00000000       0.00000000     
 --------------------------------------------------------------------



                 RECHARGE =  0.5000000E-03
 ---------------------------------------------------
  CHD NO.    LAYER    ROW     COL         HEAD      
 ---------------------------------------------------
     1         1       1       1     1000.00000     
     2         1       1       2     1000.00000     
     3         1       1       3     1000.00000     
     4         1       1       4     1000.00000     
     5         1       1       5     1000.00000     
     6         1       1       6     1000.00000     
     7         1       1       7     1000.00000     
     8         1       1       8     1000.00000     
     9         1       1       9     1000.00000     
     10        1      21       1     1000.00000     
     11        1      21       2     1000.00000     
     12        1      21       3     1000.00000     
     13        1      21       4     1000.00000     
     14        1      21       5     1000.00000     
     15        1      21       6     1000.00000     
     16        1      21       7     1000.00000     
     17        1      21       8     1000.00000     
     18        1      21       9     1000.00000     
 ---------------------------------------------------


 UBDSV1 SAVING     FLOW-JA-FACE ON UNIT   1015 AT TIME STEP      1, STRESS PERIOD      1
 UBDSV06 SAVING              WEL IN MODEL MUMODEL          PACKAGE MUMODEL         CONNECTED TO MODEL MUMODEL          PACKAGE WEL-1            ON UNIT   1015 AT TIME STEP      1, STRESS PERIOD      1
 UBDSV06 SAVING             RCHA IN MODEL MUMODEL          PACKAGE MUMODEL         CONNECTED TO MODEL MUMODEL          PACKAGE RCH-1            ON UNIT   1015 AT TIME STEP      1, STRESS PERIOD      1

 WEL PACKAGE (WEL-1) FLOW RATES   PERIOD      1   STEP        1
 -----------------------------------------------
   NUMBER   CELLID                    RATE      
 -----------------------------------------------
     1      (1,5,5)               0.0000000     
     2      (1,11,5)              0.0000000     
     3      (1,5,5)               0.0000000     
 -----------------------------------------------




 CHD PACKAGE (CHD-FROM-IBOUND) FLOW RATES   PERIOD      1   STEP        1
 -----------------------------------------------
   NUMBER   CELLID                    RATE      
 -----------------------------------------------
     1      (1,1,1)              -1187.5006     
     2      (1,1,2)              -1187.4943     
     3      (1,1,3)              -1187.4948     
     4      (1,1,4)              -1187.4971     
     5      (1,1,5)              -1187.4994     
     6      (1,1,6)              -1187.5014     
     7      (1,1,7)              -1187.5033     
     8      (1,1,8)              -1187.5058     
     9      (1,1,9)              -1187.5087     
     10     (1,21,1)             -1187.5086     
     11     (1,21,2)             -1187.5044     
     12     (1,21,3)             -1187.5017     
     13     (1,21,4)             -1187.4996     
     14     (1,21,5)             -1187.4969     
     15     (1,21,6)             -1187.4940     
     16     (1,21,7)             -1187.4924     
     17     (1,21,8)             -1187.4940     
     18     (1,21,9)             -1187.5044     
 -----------------------------------------------




 HEAD WILL BE SAVED ON UNIT 1016 AT END OF TIME STEP    1, STRESS PERIOD    1


  VOLUME BUDGET FOR ENTIRE MODEL AT END OF TIME STEP    1, STRESS PERIOD   1
  ---------------------------------------------------------------------------------------------------

     CUMULATIVE VOLUME      L**3       RATES FOR THIS TIME STEP      L**3/T          PACKAGE NAME    
     ------------------                 ------------------------                     ----------------

           IN:                                      IN:
           ---                                      ---
              STO-SS =           0.0000                STO-SS =           0.0000     STORAGE                          
              STO-SY =           0.0000                STO-SY =           0.0000     STORAGE                          
                 WEL =           0.0000                   WEL =           0.0000     WEL-1                            
                RCHA =       21375.0000                  RCHA =       21375.0000     RCH-1                            
                 CHD =           0.0000                   CHD =           0.0000     CHD-FROM-IBOUND                  

            TOTAL IN =       21375.0000              TOTAL IN =       21375.0000

          OUT:                                     OUT:
          ----                                     ----
              STO-SS =           0.0000                STO-SS =           0.0000     STORAGE                          
              STO-SY =           0.0000                STO-SY =           0.0000     STORAGE                          
                 WEL =           0.0000                   WEL =           0.0000     WEL-1                            
                RCHA =           0.0000                  RCHA =           0.0000     RCH-1                            
                 CHD =       21375.0015                   CHD =       21375.0015     CHD-FROM-IBOUND                  

           TOTAL OUT =       21375.0015             TOTAL OUT =       21375.0015

            IN - OUT =      -1.4845E-03              IN - OUT =      -1.4845E-03

 PERCENT DISCREPANCY =          -0.00     PERCENT DISCREPANCY =          -0.00




         TIME SUMMARY AT END OF TIME STEP    1 IN STRESS PERIOD    1
                    SECONDS     MINUTES      HOURS       DAYS        YEARS
                    -----------------------------------------------------------
   TIME STEP LENGTH  86400.      1440.0      24.000      1.0000     2.73785E-03
 STRESS PERIOD TIME  86400.      1440.0      24.000      1.0000     2.73785E-03
         TOTAL TIME  86400.      1440.0      24.000      1.0000     2.73785E-03


end timestep


start timestep kper="2" kstp="1" mode="normal"


 END OF FILE DETECTED IN OUTPUT CONTROL.
 CURRENT OUTPUT CONTROL SETTINGS WILL BE 
 REPEATED UNTIL THE END OF THE SIMULATION.

 OUTPUT CONTROL FOR STRESS PERIOD 2 IS REPEATED USING SETTINGS FROM A PREVIOUS STRESS PERIOD.


 PROCESSING STORAGE PERIOD DATA
 END PROCESSING STORAGE PERIOD DATA


 STRESS PERIOD 2 IS TRANSIENT


 REUSING WELS FROM LAST STRESS PERIOD

                 RECHARGE =  0.1000000E-02

 REUSING CHDS FROM LAST STRESS PERIOD
 UBDSV1 SAVING     FLOW-JA-FACE ON UNIT   1015 AT TIME STEP      1, STRESS PERIOD      2
 UBDSV06 SAVING              WEL IN MODEL MUMODEL          PACKAGE MUMODEL         CONNECTED TO MODEL MUMODEL          PACKAGE WEL-1            ON UNIT   1015 AT TIME STEP      1, STRESS PERIOD      2
 UBDSV06 SAVING             RCHA IN MODEL MUMODEL          PACKAGE MUMODEL         CONNECTED TO MODEL MUMODEL          PACKAGE RCH-1            ON UNIT   1015 AT TIME STEP      1, STRESS PERIOD      2

 WEL PACKAGE (WEL-1) FLOW RATES   PERIOD      2   STEP        1
 -----------------------------------------------
   NUMBER   CELLID                    RATE      
 -----------------------------------------------
     1      (1,5,5)               0.0000000     
     2      (1,11,5)              0.0000000     
     3      (1,5,5)               0.0000000     
 -----------------------------------------------




 CHD PACKAGE (CHD-FROM-IBOUND) FLOW RATES   PERIOD      2   STEP        1
 -----------------------------------------------
   NUMBER   CELLID                    RATE      
 -----------------------------------------------
     1      (1,1,1)              -1187.9351     
     2      (1,1,2)              -1187.9288     
     3      (1,1,3)              -1187.9292     
     4      (1,1,4)              -1187.9315     
     5      (1,1,5)              -1187.9338     
     6      (1,1,6)              -1187.9357     
     7      (1,1,7)              -1187.9376     
     8      (1,1,8)              -1187.9400     
     9      (1,1,9)              -1187.9430     
     10     (1,21,1)             -1187.9429     
     11     (1,21,2)             -1187.9386     
     12     (1,21,3)             -1187.9360     
     13     (1,21,4)             -1187.9338     
     14     (1,21,5)             -1187.9312     
     15     (1,21,6)             -1187.9284     
     16     (1,21,7)             -1187.9269     
     17     (1,21,8)             -1187.9286     
     18     (1,21,9)             -1187.9390     
 -----------------------------------------------




 HEAD WILL BE SAVED ON UNIT 1016 AT END OF TIME STEP    1, STRESS PERIOD    2


  VOLUME BUDGET FOR ENTIRE MODEL AT END OF TIME STEP    1, STRESS PERIOD   2
  ---------------------------------------------------------------------------------------------------

     CUMULATIVE VOLUME      L**3       RATES FOR THIS TIME STEP      L**3/T          PACKAGE NAME    
     ------------------                 ------------------------                     ----------------

           IN:                                      IN:
           ---                                      ---
              STO-SS =           0.0000                STO-SS =           0.0000     STORAGE                          
              STO-SY =           0.0000                STO-SY =           0.0000     STORAGE                          
                 WEL =           0.0000                   WEL =           0.0000     WEL-1                            
                RCHA =      101697.6370                  RCHA =       42750.0000     RCH-1                            
                 CHD =           0.0000                   CHD =           0.0000     CHD-FROM-IBOUND                  

            TOTAL IN =      101697.6370              TOTAL IN =       42750.0000

          OUT:                                     OUT:
          ----                                     ----
              STO-SS =       38531.6846                STO-SS =       20507.6623     STORAGE                          
              STO-SY =        1615.2471                STO-SY =         859.6806     STORAGE                          
                 WEL =           0.0000                   WEL =           0.0000     WEL-1                            
                RCHA =           0.0000                  RCHA =           0.0000     RCH-1                            
                 CHD =       61551.0130                   CHD =       21382.8200     CHD-FROM-IBOUND                  

           TOTAL OUT =      101697.9447             TOTAL OUT =       42750.1630

            IN - OUT =          -0.3077              IN - OUT =          -0.1630

 PERCENT DISCREPANCY =          -0.00     PERCENT DISCREPANCY =          -0.00




         TIME SUMMARY AT END OF TIME STEP    1 IN STRESS PERIOD    2
                    SECONDS     MINUTES      HOURS       DAYS        YEARS
                    -----------------------------------------------------------
   TIME STEP LENGTH 1.62336E+05  2705.6      45.093      1.8789     5.14413E-03
 STRESS PERIOD TIME 1.62336E+05  2705.6      45.093      1.8789     5.14413E-03
         TOTAL TIME 2.48736E+05  4145.6      69.093      2.8789     7.88198E-03


end timestep


start timestep kper="2" kstp="2" mode="normal"

 UBDSV1 SAVING     FLOW-JA-FACE ON UNIT   1015 AT TIME STEP      2, STRESS PERIOD      2
 UBDSV06 SAVING              WEL IN MODEL MUMODEL          PACKAGE MUMODEL         CONNECTED TO MODEL MUMODEL          PACKAGE WEL-1            ON UNIT   1015 AT TIME STEP      2, STRESS PERIOD      2
 UBDSV06 SAVING             RCHA IN MODEL MUMODEL          PACKAGE MUMODEL         CONNECTED TO MODEL MUMODEL          PACKAGE RCH-1            ON UNIT   1015 AT TIME STEP      2, STRESS PERIOD      2

 WEL PACKAGE (WEL-1) FLOW RATES   PERIOD      2   STEP        2
 -----------------------------------------------
   NUMBER   CELLID                    RATE      
 -----------------------------------------------
     1      (1,5,5)               0.0000000     
     2      (1,11,5)              0.0000000     
     3      (1,5,5)               0.0000000     
 -----------------------------------------------




 CHD PACKAGE (CHD-FROM-IBOUND) FLOW RATES   PERIOD      2   STEP        2
 -----------------------------------------------
   NUMBER   CELLID                    RATE      
 -----------------------------------------------
     1      (1,1,1)              -1188.4657     
     2      (1,1,2)              -1188.4594     
     3      (1,1,3)              -1188.4598     
     4      (1,1,4)              -1188.4620     
     5      (1,1,5)              -1188.4643     
     6      (1,1,6)              -1188.4663     
     7      (1,1,7)              -1188.4681     
     8      (1,1,8)              -1188.4705     
     9      (1,1,9)              -1188.4735     
     10     (1,21,1)             -1188.4733     
     11     (1,21,2)             -1188.4692     
     12     (1,21,3)             -1188.4665     
     13     (1,21,4)             -1188.4644     
     14     (1,21,5)             -1188.4617     
     15     (1,21,6)             -1188.4590     
     16     (1,21,7)             -1188.4575     
     17     (1,21,8)             -1188.4593     
     18     (1,21,9)             -1188.4695     
 -----------------------------------------------




 HEAD WILL BE SAVED ON UNIT 1016 AT END OF TIME STEP    2, STRESS PERIOD    2


  VOLUME BUDGET FOR ENTIRE MODEL AT END OF TIME STEP    2, STRESS PERIOD   2
  ---------------------------------------------------------------------------------------------------

     CUMULATIVE VOLUME      L**3       RATES FOR THIS TIME STEP      L**3/T          PACKAGE NAME    
     ------------------                 ------------------------                     ----------------

           IN:                                      IN:
           ---                                      ---
              STO-SS =           0.0000                STO-SS =           0.0000     STORAGE                          
              STO-SY =           0.0000                STO-SY =           0.0000     STORAGE                          
                 WEL =           0.0000                   WEL =           0.0000     WEL-1                            
                RCHA =      198084.8015                  RCHA =       42750.0000     RCH-1                            
                 CHD =           0.0000                   CHD =           0.0000     CHD-FROM-IBOUND                  

            TOTAL IN =      198084.8015              TOTAL IN =       42750.0000

          OUT:                                     OUT:
          ----                                     ----
              STO-SS =       84749.2491                STO-SS =       20498.5892     STORAGE                          
              STO-SY =        3552.5418                STO-SY =         859.2363     STORAGE                          
                 WEL =           0.0000                   WEL =           0.0000     WEL-1                            
                RCHA =           0.0000                  RCHA =           0.0000     RCH-1                            
                 CHD =      109783.7587                   CHD =       21392.3699     CHD-FROM-IBOUND                  

           TOTAL OUT =      198085.5496             TOTAL OUT =       42750.1953

            IN - OUT =          -0.7481              IN - OUT =          -0.1953

 PERCENT DISCREPANCY =          -0.00     PERCENT DISCREPANCY =          -0.00




         TIME SUMMARY AT END OF TIME STEP    2 IN STRESS PERIOD    2
                    SECONDS     MINUTES      HOURS       DAYS        YEARS
                    -----------------------------------------------------------
   TIME STEP LENGTH 1.94804E+05  3246.7      54.112      2.2547     6.17295E-03
 STRESS PERIOD TIME 3.57140E+05  5952.3      99.206      4.1336     1.13171E-02
         TOTAL TIME 4.43540E+05  7392.3      123.21      5.1336     1.40549E-02


end timestep


start timestep kper="2" kstp="3" mode="normal"

 UBDSV1 SAVING     FLOW-JA-FACE ON UNIT   1015 AT TIME STEP      3, STRESS PERIOD      2
 UBDSV06 SAVING              WEL IN MODEL MUMODEL          PACKAGE MUMODEL         CONNECTED TO MODEL MUMODEL          PACKAGE WEL-1            ON UNIT   1015 AT TIME STEP      3, STRESS PERIOD      2
 UBDSV06 SAVING             RCHA IN MODEL MUMODEL          PACKAGE MUMODEL         CONNECTED TO MODEL MUMODEL          PACKAGE RCH-1            ON UNIT   1015 AT TIME STEP      3, STRESS PERIOD      2

 WEL PACKAGE (WEL-1) FLOW RATES   PERIOD      2   STEP        3
 -----------------------------------------------
   NUMBER   CELLID                    RATE      
 -----------------------------------------------
     1      (1,5,5)               0.0000000     
     2      (1,11,5)              0.0000000     
     3      (1,5,5)               0.0000000     
 -----------------------------------------------




 CHD PACKAGE (CHD-FROM-IBOUND) FLOW RATES   PERIOD      2   STEP        3
 -----------------------------------------------
   NUMBER   CELLID                    RATE      
 -----------------------------------------------
     1      (1,1,1)              -1189.0991     
     2      (1,1,2)              -1189.0929     
     3      (1,1,3)              -1189.0933     
     4      (1,1,4)              -1189.0954     
     5      (1,1,5)              -1189.0977     
     6      (1,1,6)              -1189.0997     
     7      (1,1,7)              -1189.1015     
     8      (1,1,8)              -1189.1039     
     9      (1,1,9)              -1189.1069     
     10     (1,21,1)             -1189.1067     
     11     (1,21,2)             -1189.1026     
     12     (1,21,3)             -1189.0999     
     13     (1,21,4)             -1189.0978     
     14     (1,21,5)             -1189.0952     
     15     (1,21,6)             -1189.0925     
     16     (1,21,7)             -1189.0910     
     17     (1,21,8)             -1189.0928     
     18     (1,21,9)             -1189.1030     
 -----------------------------------------------




 HEAD WILL BE SAVED ON UNIT 1016 AT END OF TIME STEP    3, STRESS PERIOD    2


  VOLUME BUDGET FOR ENTIRE MODEL AT END OF TIME STEP    3, STRESS PERIOD   2
  ---------------------------------------------------------------------------------------------------

     CUMULATIVE VOLUME      L**3       RATES FOR THIS TIME STEP      L**3/T          PACKAGE NAME    
     ------------------                 ------------------------                     ----------------

           IN:                                      IN:
           ---                                      ---
              STO-SS =           0.0000                STO-SS =           0.0000     STORAGE                          
              STO-SY =           0.0000                STO-SY =           0.0000     STORAGE                          
                 WEL =           0.0000                   WEL =           0.0000     WEL-1                            
                RCHA =      313749.3989                  RCHA =       42750.0000     RCH-1                            
                 CHD =           0.0000                   CHD =           0.0000     CHD-FROM-IBOUND                  

            TOTAL IN =      313749.3989              TOTAL IN =       42750.0000

          OUT:                                     OUT:
          ----                                     ----
              STO-SS =      140181.0176                STO-SS =       20487.7565     STORAGE                          
              STO-SY =        5875.8601                STO-SY =         858.7058     STORAGE                          
                 WEL =           0.0000                   WEL =           0.0000     WEL-1                            
                RCHA =           0.0000                  RCHA =           0.0000     RCH-1                            
                 CHD =      167693.9026                   CHD =       21403.7718     CHD-FROM-IBOUND                  

           TOTAL OUT =      313750.7803             TOTAL OUT =       42750.2341

            IN - OUT =          -1.3815              IN - OUT =          -0.2341

 PERCENT DISCREPANCY =          -0.00     PERCENT DISCREPANCY =          -0.00




         TIME SUMMARY AT END OF TIME STEP    3 IN STRESS PERIOD    2
                    SECONDS     MINUTES      HOURS       DAYS        YEARS
                    -----------------------------------------------------------
   TIME STEP LENGTH 2.33764E+05  3896.1      64.935      2.7056     7.40754E-03
 STRESS PERIOD TIME 5.90904E+05  9848.4      164.14      6.8392     1.87246E-02
         TOTAL TIME 6.77304E+05  11288.      188.14      7.8392     2.14625E-02


end timestep


start timestep kper="2" kstp="4" mode="normal"

 UBDSV1 SAVING     FLOW-JA-FACE ON UNIT   1015 AT TIME STEP      4, STRESS PERIOD      2
 UBDSV06 SAVING              WEL IN MODEL MUMODEL          PACKAGE MUMODEL         CONNECTED TO MODEL MUMODEL          PACKAGE WEL-1            ON UNIT   1015 AT TIME STEP      4, STRESS PERIOD      2
 UBDSV06 SAVING             RCHA IN MODEL MUMODEL          PACKAGE MUMODEL         CONNECTED TO MODEL MUMODEL          PACKAGE RCH-1            ON UNIT   1015 AT TIME STEP      4, STRESS PERIOD      2

 WEL PACKAGE (WEL-1) FLOW RATES   PERIOD      2   STEP        4
 -----------------------------------------------
   NUMBER   CELLID                    RATE      
 -----------------------------------------------
     1      (1,5,5)               0.0000000     
     2      (1,11,5)              0.0000000     
     3      (1,5,5)               0.0000000     
 -----------------------------------------------




 CHD PACKAGE (CHD-FROM-IBOUND) FLOW RATES   PERIOD      2   STEP        4
 -----------------------------------------------
   NUMBER   CELLID                    RATE      
 -----------------------------------------------
     1      (1,1,1)              -1189.8546     
     2      (1,1,2)              -1189.8485     
     3      (1,1,3)              -1189.8488     
     4      (1,1,4)              -1189.8510     
     5      (1,1,5)              -1189.8533     
     6      (1,1,6)              -1189.8552     
     7      (1,1,7)              -1189.8571     
     8      (1,1,8)              -1189.8595     
     9      (1,1,9)              -1189.8624     
     10     (1,21,1)             -1189.8622     
     11     (1,21,2)             -1189.8581     
     12     (1,21,3)             -1189.8555     
     13     (1,21,4)             -1189.8534     
     14     (1,21,5)             -1189.8507     
     15     (1,21,6)             -1189.8481     
     16     (1,21,7)             -1189.8466     
     17     (1,21,8)             -1189.8485     
     18     (1,21,9)             -1189.8585     
 -----------------------------------------------




 HEAD WILL BE SAVED ON UNIT 1016 AT END OF TIME STEP    4, STRESS PERIOD    2


  VOLUME BUDGET FOR ENTIRE MODEL AT END OF TIME STEP    4, STRESS PERIOD   2
  ---------------------------------------------------------------------------------------------------

     CUMULATIVE VOLUME      L**3       RATES FOR THIS TIME STEP      L**3/T          PACKAGE NAME    
     ------------------                 ------------------------                     ----------------

           IN:                                      IN:
           ---                                      ---
              STO-SS =           0.0000                STO-SS =           0.0000     STORAGE                          
              STO-SY =           0.0000                STO-SY =           0.0000     STORAGE                          
                 WEL =           0.0000                   WEL =           0.0000     WEL-1                            
                RCHA =      452546.9157                  RCHA =       42750.0000     RCH-1                            
                 CHD =           0.0000                   CHD =           0.0000     CHD-FROM-IBOUND                  

            TOTAL IN =      452546.9157              TOTAL IN =       42750.0000

          OUT:                                     OUT:
          ----                                     ----
              STO-SS =      206657.1891                STO-SS =       20474.8356     STORAGE                          
              STO-SY =        8661.7880                STO-SY =         858.0731     STORAGE                          
                 WEL =           0.0000                   WEL =           0.0000     WEL-1                            
                RCHA =           0.0000                  RCHA =           0.0000     RCH-1                            
                 CHD =      237230.2305                   CHD =       21417.3718     CHD-FROM-IBOUND                  

           TOTAL OUT =      452549.2077             TOTAL OUT =       42750.2805

            IN - OUT =          -2.2920              IN - OUT =          -0.2805

 PERCENT DISCREPANCY =          -0.00     PERCENT DISCREPANCY =          -0.00




         TIME SUMMARY AT END OF TIME STEP    4 IN STRESS PERIOD    2
                    SECONDS     MINUTES      HOURS       DAYS        YEARS
                    -----------------------------------------------------------
   TIME STEP LENGTH 2.80517E+05  4675.3      77.921      3.2467     8.88905E-03
 STRESS PERIOD TIME 8.71421E+05  14524.      242.06      10.086     2.76137E-02
         TOTAL TIME 9.57821E+05  15964.      266.06      11.086     3.03515E-02


end timestep


start timestep kper="2" kstp="5" mode="normal"

 UBDSV1 SAVING     FLOW-JA-FACE ON UNIT   1015 AT TIME STEP      5, STRESS PERIOD      2
 UBDSV06 SAVING              WEL IN MODEL MUMODEL          PACKAGE MUMODEL         CONNECTED TO MODEL MUMODEL          PACKAGE WEL-1            ON UNIT   1015 AT TIME STEP      5, STRESS PERIOD      2
 UBDSV06 SAVING             RCHA IN MODEL MUMODEL          PACKAGE MUMODEL         CONNECTED TO MODEL MUMODEL          PACKAGE RCH-1            ON UNIT   1015 AT TIME STEP      5, STRESS PERIOD      2

 WEL PACKAGE (WEL-1) FLOW RATES   PERIOD      2   STEP        5
 -----------------------------------------------
   NUMBER   CELLID                    RATE      
 -----------------------------------------------
     1      (1,5,5)               0.0000000     
     2      (1,11,5)              0.0000000     
     3      (1,5,5)               0.0000000     
 -----------------------------------------------




 CHD PACKAGE (CHD-FROM-IBOUND) FLOW RATES   PERIOD      2   STEP        5
 -----------------------------------------------
   NUMBER   CELLID                    RATE      
 -----------------------------------------------
     1      (1,1,1)              -1190.7548     
     2      (1,1,2)              -1190.7487     
     3      (1,1,3)              -1190.7490     
     4      (1,1,4)              -1190.7512     
     5      (1,1,5)              -1190.7534     
     6      (1,1,6)              -1190.7554     
     7      (1,1,7)              -1190.7572     
     8      (1,1,8)              -1190.7596     
     9      (1,1,9)              -1190.7624     
     10     (1,21,1)             -1190.7622     
     11     (1,21,2)             -1190.7582     
     12     (1,21,3)             -1190.7556     
     13     (1,21,4)             -1190.7535     
     14     (1,21,5)             -1190.7509     
     15     (1,21,6)             -1190.7483     
     16     (1,21,7)             -1190.7469     
     17     (1,21,8)             -1190.7488     
     18     (1,21,9)             -1190.7587     
 -----------------------------------------------




 HEAD WILL BE SAVED ON UNIT 1016 AT END OF TIME STEP    5, STRESS PERIOD    2


  VOLUME BUDGET FOR ENTIRE MODEL AT END OF TIME STEP    5, STRESS PERIOD   2
  ---------------------------------------------------------------------------------------------------

     CUMULATIVE VOLUME      L**3       RATES FOR THIS TIME STEP      L**3/T          PACKAGE NAME    
     ------------------                 ------------------------                     ----------------

           IN:                                      IN:
           ---                                      ---
              STO-SS =           0.0000                STO-SS =           0.0000     STORAGE                          
              STO-SY =           0.0000                STO-SY =           0.0000     STORAGE                          
                 WEL =           0.0000                   WEL =           0.0000     WEL-1                            
                RCHA =      619103.9358                  RCHA =       42750.0000     RCH-1                            
                 CHD =           0.0000                   CHD =           0.0000     CHD-FROM-IBOUND                  

            TOTAL IN =      619103.9358              TOTAL IN =       42750.0000

          OUT:                                     OUT:
          ----                                     ----
              STO-SS =      286368.6191                STO-SS =       20459.4416     STORAGE                          
              STO-SY =       12001.9654                STO-SY =         857.3195     STORAGE                          
                 WEL =           0.0000                   WEL =           0.0000     WEL-1                            
                RCHA =           0.0000                  RCHA =           0.0000     RCH-1                            
                 CHD =      320736.9520                   CHD =       21433.5748     CHD-FROM-IBOUND                  

           TOTAL OUT =      619107.5365             TOTAL OUT =       42750.3359

            IN - OUT =          -3.6007              IN - OUT =          -0.3359

 PERCENT DISCREPANCY =          -0.00     PERCENT DISCREPANCY =          -0.00




         TIME SUMMARY AT END OF TIME STEP    5 IN STRESS PERIOD    2
                    SECONDS     MINUTES      HOURS       DAYS        YEARS
                    -----------------------------------------------------------
   TIME STEP LENGTH 3.36621E+05  5610.3      93.506      3.8961     1.06669E-02
 STRESS PERIOD TIME 1.20804E+06  20134.      335.57      13.982     3.82805E-02
         TOTAL TIME 1.29444E+06  21574.      359.57      14.982     4.10184E-02


end timestep


start timestep kper="2" kstp="6" mode="normal"

 UBDSV1 SAVING     FLOW-JA-FACE ON UNIT   1015 AT TIME STEP      6, STRESS PERIOD      2
 UBDSV06 SAVING              WEL IN MODEL MUMODEL          PACKAGE MUMODEL         CONNECTED TO MODEL MUMODEL          PACKAGE WEL-1            ON UNIT   1015 AT TIME STEP      6, STRESS PERIOD      2
 UBDSV06 SAVING             RCHA IN MODEL MUMODEL          PACKAGE MUMODEL         CONNECTED TO MODEL MUMODEL          PACKAGE RCH-1            ON UNIT   1015 AT TIME STEP      6, STRESS PERIOD      2

 WEL PACKAGE (WEL-1) FLOW RATES   PERIOD      2   STEP        6
 -----------------------------------------------
   NUMBER   CELLID                    RATE      
 -----------------------------------------------
     1      (1,5,5)               0.0000000     
     2      (1,11,5)              0.0000000     
     3      (1,5,5)               0.0000000     
 -----------------------------------------------




 CHD PACKAGE (CHD-FROM-IBOUND) FLOW RATES   PERIOD      2   STEP        6
 -----------------------------------------------
   NUMBER   CELLID                    RATE      
 -----------------------------------------------
     1      (1,1,1)              -1191.8538     
     2      (1,1,2)              -1191.8479     
     3      (1,1,3)              -1191.8481     
     4      (1,1,4)              -1191.8502     
     5      (1,1,5)              -1191.8525     
     6      (1,1,6)              -1191.8544     
     7      (1,1,7)              -1191.8562     
     8      (1,1,8)              -1191.8586     
     9      (1,1,9)              -1191.8614     
     10     (1,21,1)             -1191.8611     
     11     (1,21,2)             -1191.8572     
     12     (1,21,3)             -1191.8546     
     13     (1,21,4)             -1191.8525     
     14     (1,21,5)             -1191.8500     
     15     (1,21,6)             -1191.8474     
     16     (1,21,7)             -1191.8461     
     17     (1,21,8)             -1191.8480     
     18     (1,21,9)             -1191.8577     
 -----------------------------------------------




 HEAD WILL BE SAVED ON UNIT 1016 AT END OF TIME STEP    6, STRESS PERIOD    2


  VOLUME BUDGET FOR ENTIRE MODEL AT END OF TIME STEP    6, STRESS PERIOD   2
  ---------------------------------------------------------------------------------------------------

     CUMULATIVE VOLUME      L**3       RATES FOR THIS TIME STEP      L**3/T          PACKAGE NAME    
     ------------------                 ------------------------                     ----------------

           IN:                                      IN:
           ---                                      ---
              STO-SS =           0.0000                STO-SS =           0.0000     STORAGE                          
              STO-SY =           0.0000                STO-SY =           0.0000     STORAGE                          
                 WEL =           0.0000                   WEL =           0.0000     WEL-1                            
                RCHA =      818972.3601                  RCHA =       42750.0000     RCH-1                            
                 CHD =           0.0000                   CHD =           0.0000     CHD-FROM-IBOUND                  

            TOTAL IN =      818972.3601              TOTAL IN =       42750.0000

          OUT:                                     OUT:
          ----                                     ----
              STO-SS =      381932.6264                STO-SS =       20440.2538     STORAGE                          
              STO-SY =       16005.8254                STO-SY =         856.3885     STORAGE                          
                 WEL =           0.0000                   WEL =           0.0000     WEL-1                            
                RCHA =           0.0000                  RCHA =           0.0000     RCH-1                            
                 CHD =      421037.5092                   CHD =       21453.3578     CHD-FROM-IBOUND                  

           TOTAL OUT =      818975.9610             TOTAL OUT =       42750.0001

            IN - OUT =          -3.6010              IN - OUT =      -6.1227E-05

 PERCENT DISCREPANCY =          -0.00     PERCENT DISCREPANCY =          -0.00




         TIME SUMMARY AT END OF TIME STEP    6 IN STRESS PERIOD    2
                    SECONDS     MINUTES      HOURS       DAYS        YEARS
                    -----------------------------------------------------------
   TIME STEP LENGTH 4.03945E+05  6732.4      112.21      4.6753     1.28002E-02
 STRESS PERIOD TIME 1.61199E+06  26866.      447.77      18.657     5.10808E-02
         TOTAL TIME 1.69839E+06  28306.      471.77      19.657     5.38186E-02


end timestep


start timestep kper="2" kstp="7" mode="normal"

 UBDSV1 SAVING     FLOW-JA-FACE ON UNIT   1015 AT TIME STEP      7, STRESS PERIOD      2
 UBDSV06 SAVING              WEL IN MODEL MUMODEL          PACKAGE MUMODEL         CONNECTED TO MODEL MUMODEL          PACKAGE WEL-1            ON UNIT   1015 AT TIME STEP      7, STRESS PERIOD      2
 UBDSV06 SAVING             RCHA IN MODEL MUMODEL          PACKAGE MUMODEL         CONNECTED TO MODEL MUMODEL          PACKAGE RCH-1            ON UNIT   1015 AT TIME STEP      7, STRESS PERIOD      2

 WEL PACKAGE (WEL-1) FLOW RATES   PERIOD      2   STEP        7
 -----------------------------------------------
   NUMBER   CELLID                    RATE      
 -----------------------------------------------
     1      (1,5,5)               0.0000000     
     2      (1,11,5)              0.0000000     
     3      (1,5,5)               0.0000000     
 -----------------------------------------------




 CHD PACKAGE (CHD-FROM-IBOUND) FLOW RATES   PERIOD      2   STEP        7
 -----------------------------------------------
   NUMBER   CELLID                    RATE      
 -----------------------------------------------
     1      (1,1,1)              -1193.1315     
     2      (1,1,2)              -1193.1257     
     3      (1,1,3)              -1193.1259     
     4      (1,1,4)              -1193.1280     
     5      (1,1,5)              -1193.1302     
     6      (1,1,6)              -1193.1321     
     7      (1,1,7)              -1193.1339     
     8      (1,1,8)              -1193.1362     
     9      (1,1,9)              -1193.1391     
     10     (1,21,1)             -1193.1387     
     11     (1,21,2)             -1193.1348     
     12     (1,21,3)             -1193.1323     
     13     (1,21,4)             -1193.1303     
     14     (1,21,5)             -1193.1278     
     15     (1,21,6)             -1193.1252     
     16     (1,21,7)             -1193.1240     
     17     (1,21,8)             -1193.1260     
     18     (1,21,9)             -1193.1354     
 -----------------------------------------------




 HEAD WILL BE SAVED ON UNIT 1016 AT END OF TIME STEP    7, STRESS PERIOD    2


  VOLUME BUDGET FOR ENTIRE MODEL AT END OF TIME STEP    7, STRESS PERIOD   2
  ---------------------------------------------------------------------------------------------------

     CUMULATIVE VOLUME      L**3       RATES FOR THIS TIME STEP      L**3/T          PACKAGE NAME    
     ------------------                 ------------------------                     ----------------

           IN:                                      IN:
           ---                                      ---
              STO-SS =           0.0000                STO-SS =           0.0000     STORAGE                          
              STO-SY =           0.0000                STO-SY =           0.0000     STORAGE                          
                 WEL =           0.0000                   WEL =           0.0000     WEL-1                            
                RCHA =     1058814.4691                  RCHA =       42750.0000     RCH-1                            
                 CHD =           0.0000                   CHD =           0.0000     CHD-FROM-IBOUND                  

            TOTAL IN =     1058814.4691              TOTAL IN =       42750.0000

          OUT:                                     OUT:
          ----                                     ----
              STO-SS =      496486.4121                STO-SS =       20418.3259     STORAGE                          
              STO-SY =       20804.4464                STO-SY =         855.3171     STORAGE                          
                 WEL =           0.0000                   WEL =           0.0000     WEL-1                            
                RCHA =           0.0000                  RCHA =           0.0000     RCH-1                            
                 CHD =      541527.2122                   CHD =       21476.3572     CHD-FROM-IBOUND                  

           TOTAL OUT =     1058818.0707             TOTAL OUT =       42750.0001

            IN - OUT =          -3.6015              IN - OUT =      -1.0287E-04

 PERCENT DISCREPANCY =          -0.00     PERCENT DISCREPANCY =          -0.00




         TIME SUMMARY AT END OF TIME STEP    7 IN STRESS PERIOD    2
                    SECONDS     MINUTES      HOURS       DAYS        YEARS
                    -----------------------------------------------------------
   TIME STEP LENGTH 4.84734E+05  8078.9      134.65      5.6103     1.53603E-02
 STRESS PERIOD TIME 2.09672E+06  34945.      582.42      24.268     6.64410E-02
         TOTAL TIME 2.18312E+06  36385.      606.42      25.268     6.91789E-02


end timestep


start timestep kper="2" kstp="8" mode="normal"

 UBDSV1 SAVING     FLOW-JA-FACE ON UNIT   1015 AT TIME STEP      8, STRESS PERIOD      2
 UBDSV06 SAVING              WEL IN MODEL MUMODEL          PACKAGE MUMODEL         CONNECTED TO MODEL MUMODEL          PACKAGE WEL-1            ON UNIT   1015 AT TIME STEP      8, STRESS PERIOD      2
 UBDSV06 SAVING             RCHA IN MODEL MUMODEL          PACKAGE MUMODEL         CONNECTED TO MODEL MUMODEL          PACKAGE RCH-1            ON UNIT   1015 AT TIME STEP      8, STRESS PERIOD      2

 WEL PACKAGE (WEL-1) FLOW RATES   PERIOD      2   STEP        8
 -----------------------------------------------
   NUMBER   CELLID                    RATE      
 -----------------------------------------------
     1      (1,5,5)               0.0000000     
     2      (1,11,5)              0.0000000     
     3      (1,5,5)               0.0000000     
 -----------------------------------------------




 CHD PACKAGE (CHD-FROM-IBOUND) FLOW RATES   PERIOD      2   STEP        8
 -----------------------------------------------
   NUMBER   CELLID                    RATE      
 -----------------------------------------------
     1      (1,1,1)              -1194.6465     
     2      (1,1,2)              -1194.6409     
     3      (1,1,3)              -1194.6410     
     4      (1,1,4)              -1194.6430     
     5      (1,1,5)              -1194.6452     
     6      (1,1,6)              -1194.6470     
     7      (1,1,7)              -1194.6488     
     8      (1,1,8)              -1194.6511     
     9      (1,1,9)              -1194.6539     
     10     (1,21,1)             -1194.6536     
     11     (1,21,2)             -1194.6497     
     12     (1,21,3)             -1194.6472     
     13     (1,21,4)             -1194.6452     
     14     (1,21,5)             -1194.6428     
     15     (1,21,6)             -1194.6403     
     16     (1,21,7)             -1194.6391     
     17     (1,21,8)             -1194.6412     
     18     (1,21,9)             -1194.6504     
 -----------------------------------------------




 HEAD WILL BE SAVED ON UNIT 1016 AT END OF TIME STEP    8, STRESS PERIOD    2


  VOLUME BUDGET FOR ENTIRE MODEL AT END OF TIME STEP    8, STRESS PERIOD   2
  ---------------------------------------------------------------------------------------------------

     CUMULATIVE VOLUME      L**3       RATES FOR THIS TIME STEP      L**3/T          PACKAGE NAME    
     ------------------                 ------------------------                     ----------------

           IN:                                      IN:
           ---                                      ---
              STO-SS =           0.0000                STO-SS =           0.0000     STORAGE                          
              STO-SY =           0.0000                STO-SY =           0.0000     STORAGE                          
                 WEL =           0.0000                   WEL =           0.0000     WEL-1                            
                RCHA =     1346625.0000                  RCHA =       42750.0000     RCH-1                            
                 CHD =           0.0000                   CHD =           0.0000     CHD-FROM-IBOUND                  

            TOTAL IN =     1346625.0000              TOTAL IN =       42750.0000

          OUT:                                     OUT:
          ----                                     ----
              STO-SS =      633775.9134                STO-SS =       20392.3260     STORAGE                          
              STO-SY =       26554.2413                STO-SY =         854.0470     STORAGE                          
                 WEL =           0.0000                   WEL =           0.0000     WEL-1                            
                RCHA =           0.0000                  RCHA =           0.0000     RCH-1                            
                 CHD =      686298.4480                   CHD =       21503.6271     CHD-FROM-IBOUND                  

           TOTAL OUT =     1346628.6027             TOTAL OUT =       42750.0002

            IN - OUT =          -3.6027              IN - OUT =      -1.7209E-04

 PERCENT DISCREPANCY =          -0.00     PERCENT DISCREPANCY =          -0.00




         TIME SUMMARY AT END OF TIME STEP    8 IN STRESS PERIOD    2
                    SECONDS     MINUTES      HOURS       DAYS        YEARS
                    -----------------------------------------------------------
   TIME STEP LENGTH 5.81680E+05  9694.7      161.58      6.7324     1.84323E-02
 STRESS PERIOD TIME 2.67840E+06  44640.      744.00      31.000     8.48734E-02
         TOTAL TIME 2.76480E+06  46080.      768.00      32.000     8.76112E-02


end timestep


start timestep kper="3" kstp="1" mode="normal"


 OUTPUT CONTROL FOR STRESS PERIOD 3 IS REPEATED USING SETTINGS FROM A PREVIOUS STRESS PERIOD.


 STRESS PERIOD 3 IS TRANSIENT


 REUSING WELS FROM LAST STRESS PERIOD

                 RECHARGE =  0.3000000E-02

 REUSING CHDS FROM LAST STRESS PERIOD
 UBDSV1 SAVING     FLOW-JA-FACE ON UNIT   1015 AT TIME STEP      1, STRESS PERIOD      3
 UBDSV06 SAVING              WEL IN MODEL MUMODEL          PACKAGE MUMODEL         CONNECTED TO MODEL MUMODEL          PACKAGE WEL-1            ON UNIT   1015 AT TIME STEP      1, STRESS PERIOD      3
 UBDSV06 SAVING             RCHA IN MODEL MUMODEL          PACKAGE MUMODEL         CONNECTED TO MODEL MUMODEL          PACKAGE RCH-1            ON UNIT   1015 AT TIME STEP      1, STRESS PERIOD      3

 WEL PACKAGE (WEL-1) FLOW RATES   PERIOD      3   STEP        1
 -----------------------------------------------
   NUMBER   CELLID                    RATE      
 -----------------------------------------------
     1      (1,5,5)               0.0000000     
     2      (1,11,5)              0.0000000     
     3      (1,5,5)               0.0000000     
 -----------------------------------------------




 CHD PACKAGE (CHD-FROM-IBOUND) FLOW RATES   PERIOD      3   STEP        1
 -----------------------------------------------
   NUMBER   CELLID                    RATE      
 -----------------------------------------------
     1      (1,1,1)              -1196.6388     
     2      (1,1,2)              -1196.6332     
     3      (1,1,3)              -1196.6333     
     4      (1,1,4)              -1196.6353     
     5      (1,1,5)              -1196.6375     
     6      (1,1,6)              -1196.6394     
     7      (1,1,7)              -1196.6411     
     8      (1,1,8)              -1196.6434     
     9      (1,1,9)              -1196.6462     
     10     (1,21,1)             -1196.6458     
     11     (1,21,2)             -1196.6420     
     12     (1,21,3)             -1196.6395     
     13     (1,21,4)             -1196.6375     
     14     (1,21,5)             -1196.6351     
     15     (1,21,6)             -1196.6327     
     16     (1,21,7)             -1196.6315     
     17     (1,21,8)             -1196.6336     
     18     (1,21,9)             -1196.6427     
 -----------------------------------------------




 HEAD WILL BE SAVED ON UNIT 1016 AT END OF TIME STEP    1, STRESS PERIOD    3


  VOLUME BUDGET FOR ENTIRE MODEL AT END OF TIME STEP    1, STRESS PERIOD   3
  ---------------------------------------------------------------------------------------------------

     CUMULATIVE VOLUME      L**3       RATES FOR THIS TIME STEP      L**3/T          PACKAGE NAME    
     ------------------                 ------------------------                     ----------------

           IN:                                      IN:
           ---                                      ---
              STO-SS =           0.0000                STO-SS =           0.0000     STORAGE                          
              STO-SY =           0.0000                STO-SY =           0.0000     STORAGE                          
                 WEL =           0.0000                   WEL =           0.0000     WEL-1                            
                RCHA =     1564273.4359                  RCHA =      128250.0000     RCH-1                            
                 CHD =           0.0000                   CHD =           0.0000     CHD-FROM-IBOUND                  

            TOTAL IN =     1564273.4359              TOTAL IN =      128250.0000

          OUT:                                     OUT:
          ----                                     ----
              STO-SS =      807587.4580                STO-SS =      102418.9791     STORAGE                          
              STO-SY =       33837.2453                STO-SY =        4291.5322     STORAGE                          
                 WEL =           0.0000                   WEL =           0.0000     WEL-1                            
                RCHA =           0.0000                  RCHA =           0.0000     RCH-1                            
                 CHD =      722852.3353                   CHD =       21539.4887     CHD-FROM-IBOUND                  

           TOTAL OUT =     1564277.0386             TOTAL OUT =      128250.0000

            IN - OUT =          -3.6027              IN - OUT =      -1.4125E-05

 PERCENT DISCREPANCY =          -0.00     PERCENT DISCREPANCY =          -0.00




         TIME SUMMARY AT END OF TIME STEP    1 IN STRESS PERIOD    3
                    SECONDS     MINUTES      HOURS       DAYS        YEARS
                    -----------------------------------------------------------
   TIME STEP LENGTH 1.46626E+05  2443.8      40.730      1.6971     4.64631E-03
 STRESS PERIOD TIME 1.46626E+05  2443.8      40.730      1.6971     4.64631E-03
         TOTAL TIME 2.91143E+06  48524.      808.73      33.697     9.22575E-02


end timestep


start timestep kper="3" kstp="2" mode="normal"

 UBDSV1 SAVING     FLOW-JA-FACE ON UNIT   1015 AT TIME STEP      2, STRESS PERIOD      3
 UBDSV06 SAVING              WEL IN MODEL MUMODEL          PACKAGE MUMODEL         CONNECTED TO MODEL MUMODEL          PACKAGE WEL-1            ON UNIT   1015 AT TIME STEP      2, STRESS PERIOD      3
 UBDSV06 SAVING             RCHA IN MODEL MUMODEL          PACKAGE MUMODEL         CONNECTED TO MODEL MUMODEL          PACKAGE RCH-1            ON UNIT   1015 AT TIME STEP      2, STRESS PERIOD      3

 WEL PACKAGE (WEL-1) FLOW RATES   PERIOD      3   STEP        2
 -----------------------------------------------
   NUMBER   CELLID                    RATE      
 -----------------------------------------------
     1      (1,5,5)               0.0000000     
     2      (1,11,5)              0.0000000     
     3      (1,5,5)               0.0000000     
 -----------------------------------------------




 CHD PACKAGE (CHD-FROM-IBOUND) FLOW RATES   PERIOD      3   STEP        2
 -----------------------------------------------
   NUMBER   CELLID                    RATE      
 -----------------------------------------------
     1      (1,1,1)              -1199.0205     
     2      (1,1,2)              -1199.0149     
     3      (1,1,3)              -1199.0150     
     4      (1,1,4)              -1199.0170     
     5      (1,1,5)              -1199.0192     
     6      (1,1,6)              -1199.0210     
     7      (1,1,7)              -1199.0228     
     8      (1,1,8)              -1199.0251     
     9      (1,1,9)              -1199.0279     
     10     (1,21,1)             -1199.0275     
     11     (1,21,2)             -1199.0237     
     12     (1,21,3)             -1199.0212     
     13     (1,21,4)             -1199.0192     
     14     (1,21,5)             -1199.0168     
     15     (1,21,6)             -1199.0144     
     16     (1,21,7)             -1199.0132     
     17     (1,21,8)             -1199.0154     
     18     (1,21,9)             -1199.0244     
 -----------------------------------------------




 HEAD WILL BE SAVED ON UNIT 1016 AT END OF TIME STEP    2, STRESS PERIOD    3


  VOLUME BUDGET FOR ENTIRE MODEL AT END OF TIME STEP    2, STRESS PERIOD   3
  ---------------------------------------------------------------------------------------------------

     CUMULATIVE VOLUME      L**3       RATES FOR THIS TIME STEP      L**3/T          PACKAGE NAME    
     ------------------                 ------------------------                     ----------------

           IN:                                      IN:
           ---                                      ---
              STO-SS =           0.0000                STO-SS =           0.0000     STORAGE                          
              STO-SY =           0.0000                STO-SY =           0.0000     STORAGE                          
                 WEL =           0.0000                   WEL =           0.0000     WEL-1                            
                RCHA =     1825451.5589                  RCHA =      128250.0000     RCH-1                            
                 CHD =           0.0000                   CHD =           0.0000     CHD-FROM-IBOUND                  

            TOTAL IN =     1825451.5589              TOTAL IN =      128250.0000

          OUT:                                     OUT:
          ----                                     ----
              STO-SS =     1016078.6067                STO-SS =      102378.3673     STORAGE                          
              STO-SY =       42572.2501                STO-SY =        4289.2734     STORAGE                          
                 WEL =           0.0000                   WEL =           0.0000     WEL-1                            
                RCHA =           0.0000                  RCHA =           0.0000     RCH-1                            
                 CHD =      766804.3049                   CHD =       21582.3594     CHD-FROM-IBOUND                  

           TOTAL OUT =     1825455.1617             TOTAL OUT =      128250.0000

            IN - OUT =          -3.6028              IN - OUT =      -2.9331E-05

 PERCENT DISCREPANCY =          -0.00     PERCENT DISCREPANCY =          -0.00




         TIME SUMMARY AT END OF TIME STEP    2 IN STRESS PERIOD    3
                    SECONDS     MINUTES      HOURS       DAYS        YEARS
                    -----------------------------------------------------------
   TIME STEP LENGTH 1.75952E+05  2932.5      48.875      2.0365     5.57557E-03
 STRESS PERIOD TIME 3.22578E+05  5376.3      89.605      3.7335     1.02219E-02
         TOTAL TIME 3.08738E+06  51456.      857.60      35.734     9.78331E-02


end timestep


start timestep kper="3" kstp="3" mode="normal"

 UBDSV1 SAVING     FLOW-JA-FACE ON UNIT   1015 AT TIME STEP      3, STRESS PERIOD      3
 UBDSV06 SAVING              WEL IN MODEL MUMODEL          PACKAGE MUMODEL         CONNECTED TO MODEL MUMODEL          PACKAGE WEL-1            ON UNIT   1015 AT TIME STEP      3, STRESS PERIOD      3
 UBDSV06 SAVING             RCHA IN MODEL MUMODEL          PACKAGE MUMODEL         CONNECTED TO MODEL MUMODEL          PACKAGE RCH-1            ON UNIT   1015 AT TIME STEP      3, STRESS PERIOD      3

 WEL PACKAGE (WEL-1) FLOW RATES   PERIOD      3   STEP        3
 -----------------------------------------------
   NUMBER   CELLID                    RATE      
 -----------------------------------------------
     1      (1,5,5)               0.0000000     
     2      (1,11,5)              0.0000000     
     3      (1,5,5)               0.0000000     
 -----------------------------------------------




 CHD PACKAGE (CHD-FROM-IBOUND) FLOW RATES   PERIOD      3   STEP        3
 -----------------------------------------------
   NUMBER   CELLID                    RATE      
 -----------------------------------------------
     1      (1,1,1)              -1201.8656     
     2      (1,1,2)              -1201.8601     
     3      (1,1,3)              -1201.8602     
     4      (1,1,4)              -1201.8621     
     5      (1,1,5)              -1201.8643     
     6      (1,1,6)              -1201.8661     
     7      (1,1,7)              -1201.8679     
     8      (1,1,8)              -1201.8702     
     9      (1,1,9)              -1201.8729     
     10     (1,21,1)             -1201.8725     
     11     (1,21,2)             -1201.8688     
     12     (1,21,3)             -1201.8663     
     13     (1,21,4)             -1201.8643     
     14     (1,21,5)             -1201.8619     
     15     (1,21,6)             -1201.8595     
     16     (1,21,7)             -1201.8584     
     17     (1,21,8)             -1201.8605     
     18     (1,21,9)             -1201.8695     
 -----------------------------------------------




 HEAD WILL BE SAVED ON UNIT 1016 AT END OF TIME STEP    3, STRESS PERIOD    3


  VOLUME BUDGET FOR ENTIRE MODEL AT END OF TIME STEP    3, STRESS PERIOD   3
  ---------------------------------------------------------------------------------------------------

     CUMULATIVE VOLUME      L**3       RATES FOR THIS TIME STEP      L**3/T          PACKAGE NAME    
     ------------------                 ------------------------                     ----------------

           IN:                                      IN:
           ---                                      ---
              STO-SS =           0.0000                STO-SS =           0.0000     STORAGE                          
              STO-SY =           0.0000                STO-SY =           0.0000     STORAGE                          
                 WEL =           0.0000                   WEL =           0.0000     WEL-1                            
                RCHA =     2138865.3066                  RCHA =      128250.0000     RCH-1                            
                 CHD =           0.0000                   CHD =           0.0000     CHD-FROM-IBOUND                  

            TOTAL IN =     2138865.3066              TOTAL IN =      128250.0000

          OUT:                                     OUT:
          ----                                     ----
              STO-SS =     1266149.4304                STO-SS =      102329.8543     STORAGE                          
              STO-SY =       53047.6605                STO-SY =        4286.5745     STORAGE                          
                 WEL =           0.0000                   WEL =           0.0000     WEL-1                            
                RCHA =           0.0000                  RCHA =           0.0000     RCH-1                            
                 CHD =      819671.8186                   CHD =       21633.5712     CHD-FROM-IBOUND                  

           TOTAL OUT =     2138868.9095             TOTAL OUT =      128250.0000

            IN - OUT =          -3.6029              IN - OUT =      -4.5534E-05

 PERCENT DISCREPANCY =          -0.00     PERCENT DISCREPANCY =          -0.00




         TIME SUMMARY AT END OF TIME STEP    3 IN STRESS PERIOD    3
                    SECONDS     MINUTES      HOURS       DAYS        YEARS
                    -----------------------------------------------------------
   TIME STEP LENGTH 2.11142E+05  3519.0      58.651      2.4438     6.69068E-03
 STRESS PERIOD TIME 5.33720E+05  8895.3      148.26      6.1773     1.69126E-02
         TOTAL TIME 3.29852E+06  54975.      916.26      38.177     0.10452    


end timestep


start timestep kper="3" kstp="4" mode="normal"

 UBDSV1 SAVING     FLOW-JA-FACE ON UNIT   1015 AT TIME STEP      4, STRESS PERIOD      3
 UBDSV06 SAVING              WEL IN MODEL MUMODEL          PACKAGE MUMODEL         CONNECTED TO MODEL MUMODEL          PACKAGE WEL-1            ON UNIT   1015 AT TIME STEP      4, STRESS PERIOD      3
 UBDSV06 SAVING             RCHA IN MODEL MUMODEL          PACKAGE MUMODEL         CONNECTED TO MODEL MUMODEL          PACKAGE RCH-1            ON UNIT   1015 AT TIME STEP      4, STRESS PERIOD      3

 WEL PACKAGE (WEL-1) FLOW RATES   PERIOD      3   STEP        4
 -----------------------------------------------
   NUMBER   CELLID                    RATE      
 -----------------------------------------------
     1      (1,5,5)               0.0000000     
     2      (1,11,5)              0.0000000     
     3      (1,5,5)               0.0000000     
 -----------------------------------------------




 CHD PACKAGE (CHD-FROM-IBOUND) FLOW RATES   PERIOD      3   STEP        4
 -----------------------------------------------
   NUMBER   CELLID                    RATE      
 -----------------------------------------------
     1      (1,1,1)              -1205.2613     
     2      (1,1,2)              -1205.2559     
     3      (1,1,3)              -1205.2559     
     4      (1,1,4)              -1205.2578     
     5      (1,1,5)              -1205.2600     
     6      (1,1,6)              -1205.2618     
     7      (1,1,7)              -1205.2636     
     8      (1,1,8)              -1205.2659     
     9      (1,1,9)              -1205.2686     
     10     (1,21,1)             -1205.2681     
     11     (1,21,2)             -1205.2644     
     12     (1,21,3)             -1205.2620     
     13     (1,21,4)             -1205.2600     
     14     (1,21,5)             -1205.2576     
     15     (1,21,6)             -1205.2553     
     16     (1,21,7)             -1205.2542     
     17     (1,21,8)             -1205.2563     
     18     (1,21,9)             -1205.2652     
 -----------------------------------------------




 HEAD WILL BE SAVED ON UNIT 1016 AT END OF TIME STEP    4, STRESS PERIOD    3


  VOLUME BUDGET FOR ENTIRE MODEL AT END OF TIME STEP    4, STRESS PERIOD   3
  ---------------------------------------------------------------------------------------------------

     CUMULATIVE VOLUME      L**3       RATES FOR THIS TIME STEP      L**3/T          PACKAGE NAME    
     ------------------                 ------------------------                     ----------------

           IN:                                      IN:
           ---                                      ---
              STO-SS =           0.0000                STO-SS =           0.0000     STORAGE                          
              STO-SY =           0.0000                STO-SY =           0.0000     STORAGE                          
                 WEL =           0.0000                   WEL =           0.0000     WEL-1                            
                RCHA =     2514961.8037                  RCHA =      128250.0000     RCH-1                            
                 CHD =           0.0000                   CHD =           0.0000     CHD-FROM-IBOUND                  

            TOTAL IN =     2514961.8037              TOTAL IN =      128250.0000

          OUT:                                     OUT:
          ----                                     ----
              STO-SS =     1566064.6234                STO-SS =      102271.9536     STORAGE                          
              STO-SY =       65608.7047                STO-SY =        4283.3526     STORAGE                          
                 WEL =           0.0000                   WEL =           0.0000     WEL-1                            
                RCHA =           0.0000                  RCHA =           0.0000     RCH-1                            
                 CHD =      883292.0788                   CHD =       21694.6939     CHD-FROM-IBOUND                  

           TOTAL OUT =     2514965.4069             TOTAL OUT =      128250.0001

            IN - OUT =          -3.6031              IN - OUT =      -7.5761E-05

 PERCENT DISCREPANCY =          -0.00     PERCENT DISCREPANCY =          -0.00




         TIME SUMMARY AT END OF TIME STEP    4 IN STRESS PERIOD    3
                    SECONDS     MINUTES      HOURS       DAYS        YEARS
                    -----------------------------------------------------------
   TIME STEP LENGTH 2.53370E+05  4222.8      70.381      2.9325     8.02882E-03
 STRESS PERIOD TIME 7.87090E+05  13118.      218.64      9.1098     2.49414E-02
         TOTAL TIME 3.55189E+06  59198.      986.64      41.110     0.11255    


end timestep


start timestep kper="3" kstp="5" mode="normal"

 UBDSV1 SAVING     FLOW-JA-FACE ON UNIT   1015 AT TIME STEP      5, STRESS PERIOD      3
 UBDSV06 SAVING              WEL IN MODEL MUMODEL          PACKAGE MUMODEL         CONNECTED TO MODEL MUMODEL          PACKAGE WEL-1            ON UNIT   1015 AT TIME STEP      5, STRESS PERIOD      3
 UBDSV06 SAVING             RCHA IN MODEL MUMODEL          PACKAGE MUMODEL         CONNECTED TO MODEL MUMODEL          PACKAGE RCH-1            ON UNIT   1015 AT TIME STEP      5, STRESS PERIOD      3

 WEL PACKAGE (WEL-1) FLOW RATES   PERIOD      3   STEP        5
 -----------------------------------------------
   NUMBER   CELLID                    RATE      
 -----------------------------------------------
     1      (1,5,5)               0.0000000     
     2      (1,11,5)              0.0000000     
     3      (1,5,5)               0.0000000     
 -----------------------------------------------




 CHD PACKAGE (CHD-FROM-IBOUND) FLOW RATES   PERIOD      3   STEP        5
 -----------------------------------------------
   NUMBER   CELLID                    RATE      
 -----------------------------------------------
     1      (1,1,1)              -1209.3099     
     2      (1,1,2)              -1209.3046     
     3      (1,1,3)              -1209.3046     
     4      (1,1,4)              -1209.3065     
     5      (1,1,5)              -1209.3086     
     6      (1,1,6)              -1209.3105     
     7      (1,1,7)              -1209.3122     
     8      (1,1,8)              -1209.3145     
     9      (1,1,9)              -1209.3172     
     10     (1,21,1)             -1209.3167     
     11     (1,21,2)             -1209.3130     
     12     (1,21,3)             -1209.3106     
     13     (1,21,4)             -1209.3087     
     14     (1,21,5)             -1209.3063     
     15     (1,21,6)             -1209.3040     
     16     (1,21,7)             -1209.3029     
     17     (1,21,8)             -1209.3051     
     18     (1,21,9)             -1209.3138     
 -----------------------------------------------




 HEAD WILL BE SAVED ON UNIT 1016 AT END OF TIME STEP    5, STRESS PERIOD    3


  VOLUME BUDGET FOR ENTIRE MODEL AT END OF TIME STEP    5, STRESS PERIOD   3
  ---------------------------------------------------------------------------------------------------

     CUMULATIVE VOLUME      L**3       RATES FOR THIS TIME STEP      L**3/T          PACKAGE NAME    
     ------------------                 ------------------------                     ----------------

           IN:                                      IN:
           ---                                      ---
              STO-SS =           0.0000                STO-SS =           0.0000     STORAGE                          
              STO-SY =           0.0000                STO-SY =           0.0000     STORAGE                          
                 WEL =           0.0000                   WEL =           0.0000     WEL-1                            
                RCHA =     2966277.6004                  RCHA =      128250.0000     RCH-1                            
                 CHD =           0.0000                   CHD =           0.0000     CHD-FROM-IBOUND                  

[...]

           TOTAL OUT =    46633070.9474             TOTAL OUT =       43293.8691

            IN - OUT =         -18.5016              IN - OUT =      -3.2641E-04

 PERCENT DISCREPANCY =          -0.00     PERCENT DISCREPANCY =          -0.00




         TIME SUMMARY AT END OF TIME STEP    4 IN STRESS PERIOD   25
                    SECONDS     MINUTES      HOURS       DAYS        YEARS
                    -----------------------------------------------------------
   TIME STEP LENGTH 2.80517E+05  4675.3      77.921      3.2467     8.88905E-03
 STRESS PERIOD TIME 8.71421E+05  14524.      242.06      10.086     2.76137E-02
         TOTAL TIME 6.13514E+07 1.02252E+06  17042.      710.09      1.9441    


end timestep


start timestep kper="25" kstp="5" mode="normal"

 UBDSV1 SAVING     FLOW-JA-FACE ON UNIT   1015 AT TIME STEP      5, STRESS PERIOD     25
 UBDSV06 SAVING              WEL IN MODEL MUMODEL          PACKAGE MUMODEL         CONNECTED TO MODEL MUMODEL          PACKAGE WEL-1            ON UNIT   1015 AT TIME STEP      5, STRESS PERIOD     25
 UBDSV06 SAVING             RCHA IN MODEL MUMODEL          PACKAGE MUMODEL         CONNECTED TO MODEL MUMODEL          PACKAGE RCH-1            ON UNIT   1015 AT TIME STEP      5, STRESS PERIOD     25

 WEL PACKAGE (WEL-1) FLOW RATES   PERIOD     25   STEP        5
 -----------------------------------------------
   NUMBER   CELLID                    RATE      
 -----------------------------------------------
     1      (1,5,5)              -20000.000     
     2      (1,11,5)              0.0000000     
     3      (1,5,5)               0.0000000     
 -----------------------------------------------




 CHD PACKAGE (CHD-FROM-IBOUND) FLOW RATES   PERIOD     25   STEP        5
 -----------------------------------------------
   NUMBER   CELLID                    RATE      
 -----------------------------------------------
     1      (1,1,1)              -1297.0484     
     2      (1,1,2)              -1296.5387     
     3      (1,1,3)              -1293.8491     
     4      (1,1,4)              -1284.2464     
     5      (1,1,5)              -1267.8861     
     6      (1,1,6)              -1284.2476     
     7      (1,1,7)              -1293.8510     
     8      (1,1,8)              -1296.5408     
     9      (1,1,9)              -1297.0504     
     10     (1,21,1)             -1297.1479     
     11     (1,21,2)             -1297.1475     
     12     (1,21,3)             -1297.1470     
     13     (1,21,4)             -1297.1466     
     14     (1,21,5)             -1297.1465     
     15     (1,21,6)             -1297.1468     
     16     (1,21,7)             -1297.1479     
     17     (1,21,8)             -1297.1494     
     18     (1,21,9)             -1297.1508     
 -----------------------------------------------




 HEAD WILL BE SAVED ON UNIT 1016 AT END OF TIME STEP    5, STRESS PERIOD   25


  VOLUME BUDGET FOR ENTIRE MODEL AT END OF TIME STEP    5, STRESS PERIOD  25
  ---------------------------------------------------------------------------------------------------

     CUMULATIVE VOLUME      L**3       RATES FOR THIS TIME STEP      L**3/T          PACKAGE NAME    
     ------------------                 ------------------------                     ----------------

           IN:                                      IN:
           ---                                      ---
              STO-SS =    12557518.6347                STO-SS =       20971.6246     STORAGE                          
              STO-SY =      544738.0560                STO-SY =         938.9644     STORAGE                          
                 WEL =           0.0000                   WEL =           0.0000     WEL-1                            
                RCHA =    33699439.4679                  RCHA =       21375.0000     RCH-1                            
                 CHD =           0.0000                   CHD =           0.0000     CHD-FROM-IBOUND                  

            TOTAL IN =    46801696.1586              TOTAL IN =       43285.5890

          OUT:                                     OUT:
          ----                                     ----
              STO-SS =    22323953.4994                STO-SS =           0.0000     STORAGE                          
              STO-SY =      929662.4369                STO-SY =           0.0000     STORAGE                          
                 WEL =     6959639.2682                   WEL =       20000.0000     WEL-1                            
                RCHA =           0.0000                  RCHA =           0.0000     RCH-1                            
                 CHD =    16588459.4560                   CHD =       23285.5891     CHD-FROM-IBOUND                  

           TOTAL OUT =    46801714.6605             TOTAL OUT =       43285.5891

            IN - OUT =         -18.5019              IN - OUT =      -6.4003E-05

 PERCENT DISCREPANCY =          -0.00     PERCENT DISCREPANCY =          -0.00




         TIME SUMMARY AT END OF TIME STEP    5 IN STRESS PERIOD   25
                    SECONDS     MINUTES      HOURS       DAYS        YEARS
                    -----------------------------------------------------------
   TIME STEP LENGTH 3.36621E+05  5610.3      93.506      3.8961     1.06669E-02
 STRESS PERIOD TIME 1.20804E+06  20134.      335.57      13.982     3.82805E-02
         TOTAL TIME 6.16880E+07 1.02813E+06  17136.      713.98      1.9548    


end timestep


start timestep kper="25" kstp="6" mode="normal"

 UBDSV1 SAVING     FLOW-JA-FACE ON UNIT   1015 AT TIME STEP      6, STRESS PERIOD     25
 UBDSV06 SAVING              WEL IN MODEL MUMODEL          PACKAGE MUMODEL         CONNECTED TO MODEL MUMODEL          PACKAGE WEL-1            ON UNIT   1015 AT TIME STEP      6, STRESS PERIOD     25
 UBDSV06 SAVING             RCHA IN MODEL MUMODEL          PACKAGE MUMODEL         CONNECTED TO MODEL MUMODEL          PACKAGE RCH-1            ON UNIT   1015 AT TIME STEP      6, STRESS PERIOD     25

 WEL PACKAGE (WEL-1) FLOW RATES   PERIOD     25   STEP        6
 -----------------------------------------------
   NUMBER   CELLID                    RATE      
 -----------------------------------------------
     1      (1,5,5)              -20000.000     
     2      (1,11,5)              0.0000000     
     3      (1,5,5)               0.0000000     
 -----------------------------------------------




 CHD PACKAGE (CHD-FROM-IBOUND) FLOW RATES   PERIOD     25   STEP        6
 -----------------------------------------------
   NUMBER   CELLID                    RATE      
 -----------------------------------------------
     1      (1,1,1)              -1296.6335     
     2      (1,1,2)              -1296.0911     
     3      (1,1,3)              -1293.2611     
     4      (1,1,4)              -1283.2743     
     5      (1,1,5)              -1266.4701     
     6      (1,1,6)              -1283.2755     
     7      (1,1,7)              -1293.2630     
     8      (1,1,8)              -1296.0932     
     9      (1,1,9)              -1296.6354     
     10     (1,21,1)             -1296.7409     
     11     (1,21,2)             -1296.7405     
     12     (1,21,3)             -1296.7400     
     13     (1,21,4)             -1296.7396     
     14     (1,21,5)             -1296.7395     
     15     (1,21,6)             -1296.7399     
     16     (1,21,7)             -1296.7409     
     17     (1,21,8)             -1296.7424     
     18     (1,21,9)             -1296.7438     
 -----------------------------------------------




 HEAD WILL BE SAVED ON UNIT 1016 AT END OF TIME STEP    6, STRESS PERIOD   25


  VOLUME BUDGET FOR ENTIRE MODEL AT END OF TIME STEP    6, STRESS PERIOD  25
  ---------------------------------------------------------------------------------------------------

     CUMULATIVE VOLUME      L**3       RATES FOR THIS TIME STEP      L**3/T          PACKAGE NAME    
     ------------------                 ------------------------                     ----------------

           IN:                                      IN:
           ---                                      ---
              STO-SS =    12655523.1065                STO-SS =       20962.2465     STORAGE                          
              STO-SY =      549125.4284                STO-SY =         938.4182     STORAGE                          
                 WEL =           0.0000                   WEL =           0.0000     WEL-1                            
                RCHA =    33799373.6800                  RCHA =       21375.0000     RCH-1                            
                 CHD =           0.0000                   CHD =           0.0000     CHD-FROM-IBOUND                  

            TOTAL IN =    47004022.2149              TOTAL IN =       43275.6647

          OUT:                                     OUT:
          ----                                     ----
              STO-SS =    22323953.4994                STO-SS =           0.0000     STORAGE                          
              STO-SY =      929662.4369                STO-SY =           0.0000     STORAGE                          
                 WEL =     7053144.9638                   WEL =       20000.0000     WEL-1                            
                RCHA =           0.0000                  RCHA =           0.0000     RCH-1                            
                 CHD =    16697279.8172                   CHD =       23275.6648     CHD-FROM-IBOUND                  

           TOTAL OUT =    47004040.7173             TOTAL OUT =       43275.6648

            IN - OUT =         -18.5024              IN - OUT =      -1.0745E-04

 PERCENT DISCREPANCY =          -0.00     PERCENT DISCREPANCY =          -0.00




         TIME SUMMARY AT END OF TIME STEP    6 IN STRESS PERIOD   25
                    SECONDS     MINUTES      HOURS       DAYS        YEARS
                    -----------------------------------------------------------
   TIME STEP LENGTH 4.03945E+05  6732.4      112.21      4.6753     1.28002E-02
 STRESS PERIOD TIME 1.61199E+06  26866.      447.77      18.657     5.10808E-02
         TOTAL TIME 6.20920E+07 1.03487E+06  17248.      718.66      1.9676    


end timestep


start timestep kper="25" kstp="7" mode="normal"

 UBDSV1 SAVING     FLOW-JA-FACE ON UNIT   1015 AT TIME STEP      7, STRESS PERIOD     25
 UBDSV06 SAVING              WEL IN MODEL MUMODEL          PACKAGE MUMODEL         CONNECTED TO MODEL MUMODEL          PACKAGE WEL-1            ON UNIT   1015 AT TIME STEP      7, STRESS PERIOD     25
 UBDSV06 SAVING             RCHA IN MODEL MUMODEL          PACKAGE MUMODEL         CONNECTED TO MODEL MUMODEL          PACKAGE RCH-1            ON UNIT   1015 AT TIME STEP      7, STRESS PERIOD     25

 WEL PACKAGE (WEL-1) FLOW RATES   PERIOD     25   STEP        7
 -----------------------------------------------
   NUMBER   CELLID                    RATE      
 -----------------------------------------------
     1      (1,5,5)              -20000.000     
     2      (1,11,5)              0.0000000     
     3      (1,5,5)               0.0000000     
 -----------------------------------------------




 CHD PACKAGE (CHD-FROM-IBOUND) FLOW RATES   PERIOD     25   STEP        7
 -----------------------------------------------
   NUMBER   CELLID                    RATE      
 -----------------------------------------------
     1      (1,1,1)              -1296.1406     
     2      (1,1,2)              -1295.5570     
     3      (1,1,3)              -1292.5519     
     4      (1,1,4)              -1282.0934     
     5      (1,1,5)              -1264.7531     
     6      (1,1,6)              -1282.0946     
     7      (1,1,7)              -1292.5538     
     8      (1,1,8)              -1295.5591     
     9      (1,1,9)              -1296.1425     
     10     (1,21,1)             -1296.2583     
     11     (1,21,2)             -1296.2579     
     12     (1,21,3)             -1296.2574     
     13     (1,21,4)             -1296.2571     
     14     (1,21,5)             -1296.2569     
     15     (1,21,6)             -1296.2573     
     16     (1,21,7)             -1296.2583     
     17     (1,21,8)             -1296.2599     
     18     (1,21,9)             -1296.2612     
 -----------------------------------------------




 HEAD WILL BE SAVED ON UNIT 1016 AT END OF TIME STEP    7, STRESS PERIOD   25


  VOLUME BUDGET FOR ENTIRE MODEL AT END OF TIME STEP    7, STRESS PERIOD  25
  ---------------------------------------------------------------------------------------------------

     CUMULATIVE VOLUME      L**3       RATES FOR THIS TIME STEP      L**3/T          PACKAGE NAME    
     ------------------                 ------------------------                     ----------------

           IN:                                      IN:
           ---                                      ---
              STO-SS =    12773065.3926                STO-SS =       20951.0029     STORAGE                          
              STO-SY =      554386.6229                STO-SY =         937.7672     STORAGE                          
                 WEL =           0.0000                   WEL =           0.0000     WEL-1                            
                RCHA =    33919294.7346                  RCHA =       21375.0000     RCH-1                            
                 CHD =           0.0000                   CHD =           0.0000     CHD-FROM-IBOUND                  

            TOTAL IN =    47246746.7500              TOTAL IN =       43263.7701

          OUT:                                     OUT:
          ----                                     ----
              STO-SS =    22323953.4994                STO-SS =           0.0000     STORAGE                          
              STO-SY =      929662.4369                STO-SY =           0.0000     STORAGE                          
                 WEL =     7165351.7984                   WEL =       20000.0000     WEL-1                            
                RCHA =           0.0000                  RCHA =           0.0000     RCH-1                            
                 CHD =    16827797.5187                   CHD =       23263.7703     CHD-FROM-IBOUND                  

           TOTAL OUT =    47246765.2534             TOTAL OUT =       43263.7703

            IN - OUT =         -18.5034              IN - OUT =      -1.7808E-04

 PERCENT DISCREPANCY =          -0.00     PERCENT DISCREPANCY =          -0.00




         TIME SUMMARY AT END OF TIME STEP    7 IN STRESS PERIOD   25
                    SECONDS     MINUTES      HOURS       DAYS        YEARS
                    -----------------------------------------------------------
   TIME STEP LENGTH 4.84734E+05  8078.9      134.65      5.6103     1.53603E-02
 STRESS PERIOD TIME 2.09672E+06  34945.      582.42      24.268     6.64410E-02
         TOTAL TIME 6.25767E+07 1.04295E+06  17382.      724.27      1.9829    


end timestep


start timestep kper="25" kstp="8" mode="normal"

 UBDSV1 SAVING     FLOW-JA-FACE ON UNIT   1015 AT TIME STEP      8, STRESS PERIOD     25
 UBDSV06 SAVING              WEL IN MODEL MUMODEL          PACKAGE MUMODEL         CONNECTED TO MODEL MUMODEL          PACKAGE WEL-1            ON UNIT   1015 AT TIME STEP      8, STRESS PERIOD     25
 UBDSV06 SAVING             RCHA IN MODEL MUMODEL          PACKAGE MUMODEL         CONNECTED TO MODEL MUMODEL          PACKAGE RCH-1            ON UNIT   1015 AT TIME STEP      8, STRESS PERIOD     25

 WEL PACKAGE (WEL-1) FLOW RATES   PERIOD     25   STEP        8
 -----------------------------------------------
   NUMBER   CELLID                    RATE      
 -----------------------------------------------
     1      (1,5,5)              -20000.000     
     2      (1,11,5)              0.0000000     
     3      (1,5,5)               0.0000000     
 -----------------------------------------------




 CHD PACKAGE (CHD-FROM-IBOUND) FLOW RATES   PERIOD     25   STEP        8
 -----------------------------------------------
   NUMBER   CELLID                    RATE      
 -----------------------------------------------
     1      (1,1,1)              -1295.5563     
     2      (1,1,2)              -1294.9200     
     3      (1,1,3)              -1291.6953     
     4      (1,1,4)              -1280.6554     
     5      (1,1,5)              -1262.6677     
     6      (1,1,6)              -1280.6565     
     7      (1,1,7)              -1291.6971     
     8      (1,1,8)              -1294.9220     
     9      (1,1,9)              -1295.5582     
     10     (1,21,1)             -1295.6874     
     11     (1,21,2)             -1295.6870     
     12     (1,21,3)             -1295.6865     
     13     (1,21,4)             -1295.6861     
     14     (1,21,5)             -1295.6860     
     15     (1,21,6)             -1295.6864     
     16     (1,21,7)             -1295.6874     
     17     (1,21,8)             -1295.6889     
     18     (1,21,9)             -1295.6902     
 -----------------------------------------------




 HEAD WILL BE SAVED ON UNIT 1016 AT END OF TIME STEP    8, STRESS PERIOD   25


  VOLUME BUDGET FOR ENTIRE MODEL AT END OF TIME STEP    8, STRESS PERIOD  25
  ---------------------------------------------------------------------------------------------------

     CUMULATIVE VOLUME      L**3       RATES FOR THIS TIME STEP      L**3/T          PACKAGE NAME    
     ------------------                 ------------------------                     ----------------

           IN:                                      IN:
           ---                                      ---
              STO-SS =    12914025.3769                STO-SS =       20937.5220     STORAGE                          
              STO-SY =      560694.8379                STO-SY =         936.9921     STORAGE                          
                 WEL =           0.0000                   WEL =           0.0000     WEL-1                            
                RCHA =    34063200.0000                  RCHA =       21375.0000     RCH-1                            
                 CHD =           0.0000                   CHD =           0.0000     CHD-FROM-IBOUND                  

            TOTAL IN =    47537920.2148              TOTAL IN =       43249.5141

          OUT:                                     OUT:
          ----                                     ----
              STO-SS =    22323953.4994                STO-SS =           0.0000     STORAGE                          
              STO-SY =      929662.4369                STO-SY =           0.0000     STORAGE                          
                 WEL =     7300000.0000                   WEL =       20000.0000     WEL-1                            
                RCHA =           0.0000                  RCHA =           0.0000     RCH-1                            
                 CHD =    16984322.7838                   CHD =       23249.5144     CHD-FROM-IBOUND                  

           TOTAL OUT =    47537938.7202             TOTAL OUT =       43249.5144

            IN - OUT =         -18.5054              IN - OUT =      -2.9340E-04

 PERCENT DISCREPANCY =          -0.00     PERCENT DISCREPANCY =          -0.00




         TIME SUMMARY AT END OF TIME STEP    8 IN STRESS PERIOD   25
                    SECONDS     MINUTES      HOURS       DAYS        YEARS
                    -----------------------------------------------------------
   TIME STEP LENGTH 5.81680E+05  9694.7      161.58      6.7324     1.84323E-02
 STRESS PERIOD TIME 2.67840E+06  44640.      744.00      31.000     8.48734E-02
         TOTAL TIME 6.31584E+07 1.05264E+06  17544.      731.00      2.0014    


end timestep

