                                   MODFLOW 6
                U.S. GEOLOGICAL SURVEY MODULAR HYDROLOGIC MODEL
                          GROUNDWATER FLOW MODEL (GWF)
                            VERSION 6.4.2 06/28/2023

   MODFLOW 6 compiled Jul 05 2023 20:31:54 with Intel(R) Fortran Intel(R) 64
   Compiler Classic for applications running on Intel(R) 64, Version 2021.7.0
                             Build 20220726_000000

This software has been approved for release by the U.S. Geological 
Survey (USGS). Although the software has been subjected to rigorous 
review, the USGS reserves the right to update the software as needed 
pursuant to further analysis and review. No warranty, expressed or 
implied, is made by the USGS or the U.S. Government as to the 
functionality of the software and related material nor shall the 
fact of release constitute any such warranty. Furthermore, the 
software is released on condition that neither the USGS nor the U.S. 
Government shall be held liable for any damages resulting from its 
authorized or unauthorized use. Also refer to the USGS Water 
Resources Software User Rights Notice for complete use, copyright, 
and distribution information.


As a work of the United States Government, this USGS product is 
in the public domain within the United States. You can copy, 
modify, distribute, and perform the work, even for commercial 
purposes, all without asking permission. Additionally, USGS 
waives copyright and related rights in the work worldwide 
through CC0 1.0 Universal Public Domain Dedication 
(https://creativecommons.org/publicdomain/zero/1.0/).

The following GNU Lesser General Public License (LGPL) libraries
are used in this USGS product:

    SPARSKIT version 2.0
      ilut, luson, and qsplit 
      (https://www-users.cse.umn.edu/~saad/software/SPARSKIT/)

    RCM - Reverse Cuthill McKee Ordering
      (https://people.math.sc.edu/Burkardt/f_src/rcm/rcm.html)

    BLAS - Basic Linear Algebra Subprograms Level 1
      (https://people.math.sc.edu/Burkardt/f_src/blas1_d/blas1_d.html)

    SPARSEKIT - Sparse Matrix Utility Package
      amux, dperm, dvperm, rperm, and cperm
      (https://people.sc.fsu.edu/~jburkardt/f77_src/sparsekit/sparsekit.html)

The following BSD-3 License libraries are used in this USGS product:

    Modern Fortran DAG Library
      Copyright (c) 2018, Jacob Williams
      All rights reserved.
      (https://github.com/jacobwilliams/daglib)

MODFLOW 6 compiler options: /O2 /heap-arrays:0 /fpe:0 /traceback /nologo /fpp
/c /module:win64\mod_mf6\ /object:win64\obj_mf6\

System command used to initiate simulation:
C:\A\envs\pyclass\Scripts\mf6.exe

MODFLOW was compiled using uniform precision.

Real Variables
  KIND: 8
  TINY (smallest non-zero value):    2.225074-308
  HUGE (largest value):    1.797693+308
  PRECISION: 15
  SIZE IN BITS: 64

Integer Variables
  KIND: 4
  HUGE (largest value): 2147483647
  SIZE IN BITS: 32

Long Integer Variables
  KIND: 8
  HUGE (largest value): 9223372036854775807
  SIZE IN BITS: 64

Logical Variables
  KIND: 4
  SIZE IN BITS: 32
 
 NAMEFILE OPTIONS:
 END NAMEFILE OPTIONS:

 DIS -- STRUCTURED GRID DISCRETIZATION PACKAGE, VERSION 2 : 3/27/2014 - INPUT READ FROM MEMPATH: __INPUT__/MUMODEL/DIS                             


 NPF -- NODE PROPERTY FLOW PACKAGE, VERSION 1, 3/30/2015 INPUT READ FROM MEMPATH: __INPUT__/MUMODEL/NPF                             

 Setting Discretization Options
    Model length unit [0=UND, 1=FEET, 2=METERS, 3=CENTIMETERS] set as 0
 End Setting Discretization Options

 Setting Discretization Dimensions
    NLAY = 1
    NROW = 21
    NCOL = 9
 End Setting Discretization Dimensions

 Setting Discretization Griddata
    DELR set from input file
    DELC set from input file
    TOP set from input file
    BOTM set from input file
 End Setting Discretization Griddata

 Setting NPF Options
    Cell-by-cell flow information will be saved to binary file whenever ICBCFL is not zero.
    Vertical flow will be adjusted for perched conditions.
    Vertical conductance varies with water table.
    Vertical conductance accounts for dewatered portion of an underlying cell.
 End Setting NPF Options

 Setting NPF Griddata
    ICELLTYPE set from input file
    K set from input file
    K33 not provided.  Setting K33 = K.
    K22 not provided.  Setting K22 = K.
 End Setting NPF Griddata


 WEL   -- WEL PACKAGE, VERSION 8, 2/22/2014 INPUT READ FROM UNIT 1008
 # WEL6 input file, prepared by MF5to6 on 1/30/2024 at 15:47:34.

 PROCESSING WEL OPTIONS
    AUXILIARY WEL VARIABLE: IFACE           
    LISTS OF WEL CELLS WILL BE PRINTED.
    WEL FLOWS WILL BE PRINTED TO LISTING FILE.
    FLOWS WILL BE SAVED TO BUDGET FILE SPECIFIED IN OUTPUT CONTROL
 END OF WEL OPTIONS

 PROCESSING WEL DIMENSIONS
    MAXBOUND =       3
 END OF WEL DIMENSIONS

 RCH   -- RCH PACKAGE, VERSION 8, 2/22/2014 INPUT READ FROM UNIT 1009
 # File generated by Flopy version 3.5.0 on 02/03/2024 at 22:05:11.

 PROCESSING RCH OPTIONS
    RECHARGE INPUT WILL BE READ AS ARRAY(S).
    FLOWS WILL BE SAVED TO BUDGET FILE SPECIFIED IN OUTPUT CONTROL
 END OF RCHA OPTIONS

 CHD   -- CHD PACKAGE, VERSION 8, 2/22/2014 INPUT READ FROM UNIT 1010
 # CHD6 input file, prepared by MF5to6 on 1/30/2024 at 15:47:34.

 PROCESSING CHD OPTIONS
    LISTS OF CHD CELLS WILL BE PRINTED.
    CHD FLOWS WILL BE PRINTED TO LISTING FILE.
 END OF CHD OPTIONS

 PROCESSING CHD DIMENSIONS
    MAXBOUND =      18
 END OF CHD DIMENSIONS

 IC -- INITIAL CONDITIONS PACKAGE, VERSION 8, 3/28/2015 INPUT READ FROM UNIT 1006
 # IC6 input file, prepared by MF5to6 on 1/30/2024 at 15:47:34.
 PROCESSING IC OPTIONS
 END OF IC OPTIONS
 PROCESSING GRIDDATA

     INITIAL HEAD FOR LAYER 1

               1          2          3          4          5          6          7          8          9
 .......................................................................................................
   1   1.000E+03  1.000E+03  1.000E+03  1.000E+03  1.000E+03  1.000E+03  1.000E+03  1.000E+03  1.000E+03
   2   1.100E+03  1.100E+03  1.100E+03  1.100E+03  1.100E+03  1.100E+03  1.100E+03  1.100E+03  1.100E+03
   3   1.100E+03  1.100E+03  1.100E+03  1.100E+03  1.100E+03  1.100E+03  1.100E+03  1.100E+03  1.100E+03
   4   1.100E+03  1.100E+03  1.100E+03  1.100E+03  1.100E+03  1.100E+03  1.100E+03  1.100E+03  1.100E+03
   5   1.100E+03  1.100E+03  1.100E+03  1.100E+03  1.100E+03  1.100E+03  1.100E+03  1.100E+03  1.100E+03
   6   1.100E+03  1.100E+03  1.100E+03  1.100E+03  1.100E+03  1.100E+03  1.100E+03  1.100E+03  1.100E+03
   7   1.100E+03  1.100E+03  1.100E+03  1.100E+03  1.100E+03  1.100E+03  1.100E+03  1.100E+03  1.100E+03
   8   1.100E+03  1.100E+03  1.100E+03  1.100E+03  1.100E+03  1.100E+03  1.100E+03  1.100E+03  1.100E+03
   9   1.100E+03  1.100E+03  1.100E+03  1.100E+03  1.100E+03  1.100E+03  1.100E+03  1.100E+03  1.100E+03
  10   1.100E+03  1.100E+03  1.100E+03  1.100E+03  1.100E+03  1.100E+03  1.100E+03  1.100E+03  1.100E+03
  11   1.100E+03  1.100E+03  1.100E+03  1.100E+03  1.100E+03  1.100E+03  1.100E+03  1.100E+03  1.100E+03
  12   1.100E+03  1.100E+03  1.100E+03  1.100E+03  1.100E+03  1.100E+03  1.100E+03  1.100E+03  1.100E+03
  13   1.100E+03  1.100E+03  1.100E+03  1.100E+03  1.100E+03  1.100E+03  1.100E+03  1.100E+03  1.100E+03
  14   1.100E+03  1.100E+03  1.100E+03  1.100E+03  1.100E+03  1.100E+03  1.100E+03  1.100E+03  1.100E+03
  15   1.100E+03  1.100E+03  1.100E+03  1.100E+03  1.100E+03  1.100E+03  1.100E+03  1.100E+03  1.100E+03
  16   1.100E+03  1.100E+03  1.100E+03  1.100E+03  1.100E+03  1.100E+03  1.100E+03  1.100E+03  1.100E+03
  17   1.100E+03  1.100E+03  1.100E+03  1.100E+03  1.100E+03  1.100E+03  1.100E+03  1.100E+03  1.100E+03
  18   1.100E+03  1.100E+03  1.100E+03  1.100E+03  1.100E+03  1.100E+03  1.100E+03  1.100E+03  1.100E+03
  19   1.100E+03  1.100E+03  1.100E+03  1.100E+03  1.100E+03  1.100E+03  1.100E+03  1.100E+03  1.100E+03
  20   1.100E+03  1.100E+03  1.100E+03  1.100E+03  1.100E+03  1.100E+03  1.100E+03  1.100E+03  1.100E+03
  21   1.000E+03  1.000E+03  1.000E+03  1.000E+03  1.000E+03  1.000E+03  1.000E+03  1.000E+03  1.000E+03
 END PROCESSING GRIDDATA

 STO -- STORAGE PACKAGE, VERSION 1, 5/19/2014 INPUT READ FROM UNIT 1005


 # STO6 input file, prepared by MF5to6 on 1/30/2024 at 15:47:34.
 PROCESSING STORAGE OPTIONS
 END OF STORAGE OPTIONS
 PROCESSING GRIDDATA

                 ICONVERT = 1 FOR LAYER 1

         SPECIFIC STORAGE =  0.1000000     FOR LAYER 1

           SPECIFIC YIELD =  0.1000000     FOR LAYER 1
 END PROCESSING GRIDDATA
    BINARY GRID INFORMATION WILL BE WRITTEN TO:
      UNIT NUMBER: 1014
      FILE NAME: mumodel.dis.grb

 OPENED mumodel.dis.grb
 FILE TYPE:DATA(BINARY)   UNIT 1014   STATUS:REPLACE             
 FORMAT:UNFORMATTED            ACCESS:STREAM              
 ACTION:READWRITE           

      THE LAST TIME STEP WILL BE PRINTED
      THE LAST TIME STEP WILL BE PRINTED
 # OC6 input file, prepared by MF5to6 on 1/30/2024 at 15:47:34.

 PROCESSING OC OPTIONS

    BUDGET INFORMATION WILL BE WRITTEN TO:
      UNIT NUMBER: 1015
      FILE NAME: mumodel_7-2b.cbb

 OPENED mumodel_7-2b.cbb
 FILE TYPE:DATA(BINARY)   UNIT 1015   STATUS:REPLACE             
 FORMAT:UNFORMATTED            ACCESS:STREAM              
 ACTION:READWRITE           

    HEAD INFORMATION WILL BE WRITTEN TO:
      UNIT NUMBER: 1016
      FILE NAME: mumodel_7-2b.hds

 OPENED mumodel_7-2b.hds
 FILE TYPE:DATA(BINARY)   UNIT 1016   STATUS:REPLACE             
 FORMAT:UNFORMATTED            ACCESS:STREAM              
 ACTION:READWRITE           

 END OF OC OPTIONS

start timestep kper="1" kstp="1" mode="normal"


 BEGIN READING OUTPUT CONTROL FOR STRESS PERIOD 1
      ALL TIME STEPS WILL BE SAVED
      ALL TIME STEPS WILL BE PRINTED
      ALL TIME STEPS WILL BE SAVED

 END READING OUTPUT CONTROL FOR STRESS PERIOD 1


 PROCESSING STORAGE PERIOD DATA
 END PROCESSING STORAGE PERIOD DATA


 STRESS PERIOD 1 IS STEADY-STATE

 --------------------------------------------------------------------
  WEL NO.    LAYER    ROW     COL     STRESS RATE         IFACE      
 --------------------------------------------------------------------
     1         1       5       5     0.00000000       0.00000000     
     2         1      11       5     0.00000000       0.00000000     
     3         1       5       5     0.00000000       0.00000000     
 --------------------------------------------------------------------


 ---------------------------------------------------
  CHD NO.    LAYER    ROW     COL         HEAD      
 ---------------------------------------------------
     1         1       1       1     1000.00000     
     2         1       1       2     1000.00000     
     3         1       1       3     1000.00000     
     4         1       1       4     1000.00000     
     5         1       1       5     1000.00000     
     6         1       1       6     1000.00000     
     7         1       1       7     1000.00000     
     8         1       1       8     1000.00000     
     9         1       1       9     1000.00000     
     10        1      21       1     1000.00000     
     11        1      21       2     1000.00000     
     12        1      21       3     1000.00000     
     13        1      21       4     1000.00000     
     14        1      21       5     1000.00000     
     15        1      21       6     1000.00000     
     16        1      21       7     1000.00000     
     17        1      21       8     1000.00000     
     18        1      21       9     1000.00000     
 ---------------------------------------------------


 UBDSV1 SAVING     FLOW-JA-FACE ON UNIT   1015 AT TIME STEP      1, STRESS PERIOD      1
 UBDSV06 SAVING              WEL IN MODEL MUMODEL          PACKAGE MUMODEL         CONNECTED TO MODEL MUMODEL          PACKAGE WEL-1            ON UNIT   1015 AT TIME STEP      1, STRESS PERIOD      1
 UBDSV06 SAVING             RCHA IN MODEL MUMODEL          PACKAGE MUMODEL         CONNECTED TO MODEL MUMODEL          PACKAGE RCH-1            ON UNIT   1015 AT TIME STEP      1, STRESS PERIOD      1

 WEL PACKAGE (WEL-1) FLOW RATES   PERIOD      1   STEP        1
 -----------------------------------------------
   NUMBER   CELLID                    RATE      
 -----------------------------------------------
     1      (1,5,5)               0.0000000     
     2      (1,11,5)              0.0000000     
     3      (1,5,5)               0.0000000     
 -----------------------------------------------




 CHD PACKAGE (CHD-FROM-IBOUND) FLOW RATES   PERIOD      1   STEP        1
 -----------------------------------------------
   NUMBER   CELLID                    RATE      
 -----------------------------------------------
     1      (1,1,1)              -2375.0009     
     2      (1,1,2)              -2375.0067     
     3      (1,1,3)              -2375.0049     
     4      (1,1,4)              -2375.0021     
     5      (1,1,5)              -2374.9999     
     6      (1,1,6)              -2374.9980     
     7      (1,1,7)              -2374.9959     
     8      (1,1,8)              -2374.9931     
     9      (1,1,9)              -2374.9901     
     10     (1,21,1)             -2374.9882     
     11     (1,21,2)             -2374.9935     
     12     (1,21,3)             -2374.9975     
     13     (1,21,4)             -2374.9999     
     14     (1,21,5)             -2375.0022     
     15     (1,21,6)             -2375.0054     
     16     (1,21,7)             -2375.0090     
     17     (1,21,8)             -2375.0101     
     18     (1,21,9)             -2374.9997     
 -----------------------------------------------




 HEAD WILL BE SAVED ON UNIT 1016 AT END OF TIME STEP    1, STRESS PERIOD    1


  VOLUME BUDGET FOR ENTIRE MODEL AT END OF TIME STEP    1, STRESS PERIOD   1
  ---------------------------------------------------------------------------------------------------

     CUMULATIVE VOLUME      L**3       RATES FOR THIS TIME STEP      L**3/T          PACKAGE NAME    
     ------------------                 ------------------------                     ----------------

           IN:                                      IN:
           ---                                      ---
              STO-SS =           0.0000                STO-SS =           0.0000     STORAGE                          
              STO-SY =           0.0000                STO-SY =           0.0000     STORAGE                          
                 WEL =           0.0000                   WEL =           0.0000     WEL-1                            
                RCHA =       42750.0000                  RCHA =       42750.0000     RCH-1                            
                 CHD =           0.0000                   CHD =           0.0000     CHD-FROM-IBOUND                  

            TOTAL IN =       42750.0000              TOTAL IN =       42750.0000

          OUT:                                     OUT:
          ----                                     ----
              STO-SS =           0.0000                STO-SS =           0.0000     STORAGE                          
              STO-SY =           0.0000                STO-SY =           0.0000     STORAGE                          
                 WEL =           0.0000                   WEL =           0.0000     WEL-1                            
                RCHA =           0.0000                  RCHA =           0.0000     RCH-1                            
                 CHD =       42749.9972                   CHD =       42749.9972     CHD-FROM-IBOUND                  

           TOTAL OUT =       42749.9972             TOTAL OUT =       42749.9972

            IN - OUT =       2.8030E-03              IN - OUT =       2.8030E-03

 PERCENT DISCREPANCY =           0.00     PERCENT DISCREPANCY =           0.00




         TIME SUMMARY AT END OF TIME STEP    1 IN STRESS PERIOD    1
                    SECONDS     MINUTES      HOURS       DAYS        YEARS
                    -----------------------------------------------------------
   TIME STEP LENGTH  86400.      1440.0      24.000      1.0000     2.73785E-03
 STRESS PERIOD TIME  86400.      1440.0      24.000      1.0000     2.73785E-03
         TOTAL TIME  86400.      1440.0      24.000      1.0000     2.73785E-03


end timestep


start timestep kper="2" kstp="1" mode="normal"


 END OF FILE DETECTED IN OUTPUT CONTROL.
 CURRENT OUTPUT CONTROL SETTINGS WILL BE 
 REPEATED UNTIL THE END OF THE SIMULATION.

 OUTPUT CONTROL FOR STRESS PERIOD 2 IS REPEATED USING SETTINGS FROM A PREVIOUS STRESS PERIOD.


 PROCESSING STORAGE PERIOD DATA
 END PROCESSING STORAGE PERIOD DATA


 STRESS PERIOD 2 IS TRANSIENT


 REUSING WELS FROM LAST STRESS PERIOD

 REUSING CHDS FROM LAST STRESS PERIOD
 UBDSV1 SAVING     FLOW-JA-FACE ON UNIT   1015 AT TIME STEP      1, STRESS PERIOD      2
 UBDSV06 SAVING              WEL IN MODEL MUMODEL          PACKAGE MUMODEL         CONNECTED TO MODEL MUMODEL          PACKAGE WEL-1            ON UNIT   1015 AT TIME STEP      1, STRESS PERIOD      2
 UBDSV06 SAVING             RCHA IN MODEL MUMODEL          PACKAGE MUMODEL         CONNECTED TO MODEL MUMODEL          PACKAGE RCH-1            ON UNIT   1015 AT TIME STEP      1, STRESS PERIOD      2

 WEL PACKAGE (WEL-1) FLOW RATES   PERIOD      2   STEP        1
 -----------------------------------------------
   NUMBER   CELLID                    RATE      
 -----------------------------------------------
     1      (1,5,5)               0.0000000     
     2      (1,11,5)              0.0000000     
     3      (1,5,5)               0.0000000     
 -----------------------------------------------




 CHD PACKAGE (CHD-FROM-IBOUND) FLOW RATES   PERIOD      2   STEP        1
 -----------------------------------------------
   NUMBER   CELLID                    RATE      
 -----------------------------------------------
     1      (1,1,1)              -2375.8486     
     2      (1,1,2)              -2375.8543     
     3      (1,1,3)              -2375.8527     
     4      (1,1,4)              -2375.8500     
     5      (1,1,5)              -2375.8478     
     6      (1,1,6)              -2375.8460     
     7      (1,1,7)              -2375.8440     
     8      (1,1,8)              -2375.8412     
     9      (1,1,9)              -2375.8383     
     10     (1,21,1)             -2375.8364     
     11     (1,21,2)             -2375.8416     
     12     (1,21,3)             -2375.8455     
     13     (1,21,4)             -2375.8479     
     14     (1,21,5)             -2375.8502     
     15     (1,21,6)             -2375.8534     
     16     (1,21,7)             -2375.8570     
     17     (1,21,8)             -2375.8580     
     18     (1,21,9)             -2375.8477     
 -----------------------------------------------




 HEAD WILL BE SAVED ON UNIT 1016 AT END OF TIME STEP    1, STRESS PERIOD    2


  VOLUME BUDGET FOR ENTIRE MODEL AT END OF TIME STEP    1, STRESS PERIOD   2
  ---------------------------------------------------------------------------------------------------

     CUMULATIVE VOLUME      L**3       RATES FOR THIS TIME STEP      L**3/T          PACKAGE NAME    
     ------------------                 ------------------------                     ----------------

           IN:                                      IN:
           ---                                      ---
              STO-SS =           0.0000                STO-SS =           0.0000     STORAGE                          
              STO-SY =           0.0000                STO-SY =           0.0000     STORAGE                          
                 WEL =           0.0000                   WEL =           0.0000     WEL-1                            
                RCHA =      203395.2741                  RCHA =       85500.0000     RCH-1                            
                 CHD =           0.0000                   CHD =           0.0000     CHD-FROM-IBOUND                  

            TOTAL IN =      203395.2741              TOTAL IN =       85500.0000

          OUT:                                     OUT:
          ----                                     ----
              STO-SS =       77430.9541                STO-SS =       41210.9638     STORAGE                          
              STO-SY =        2863.9782                STO-SY =        1524.2910     STORAGE                          
                 WEL =           0.0000                   WEL =           0.0000     WEL-1                            
                RCHA =           0.0000                  RCHA =           0.0000     RCH-1                            
                 CHD =      123101.3071                   CHD =       42765.2605     CHD-FROM-IBOUND                  

           TOTAL OUT =      203396.2394             TOTAL OUT =       85500.5153

            IN - OUT =          -0.9653              IN - OUT =          -0.5153

 PERCENT DISCREPANCY =          -0.00     PERCENT DISCREPANCY =          -0.00




         TIME SUMMARY AT END OF TIME STEP    1 IN STRESS PERIOD    2
                    SECONDS     MINUTES      HOURS       DAYS        YEARS
                    -----------------------------------------------------------
   TIME STEP LENGTH 1.62336E+05  2705.6      45.093      1.8789     5.14413E-03
 STRESS PERIOD TIME 1.62336E+05  2705.6      45.093      1.8789     5.14413E-03
         TOTAL TIME 2.48736E+05  4145.6      69.093      2.8789     7.88198E-03


end timestep


start timestep kper="2" kstp="2" mode="normal"

 UBDSV1 SAVING     FLOW-JA-FACE ON UNIT   1015 AT TIME STEP      2, STRESS PERIOD      2
 UBDSV06 SAVING              WEL IN MODEL MUMODEL          PACKAGE MUMODEL         CONNECTED TO MODEL MUMODEL          PACKAGE WEL-1            ON UNIT   1015 AT TIME STEP      2, STRESS PERIOD      2
 UBDSV06 SAVING             RCHA IN MODEL MUMODEL          PACKAGE MUMODEL         CONNECTED TO MODEL MUMODEL          PACKAGE RCH-1            ON UNIT   1015 AT TIME STEP      2, STRESS PERIOD      2

 WEL PACKAGE (WEL-1) FLOW RATES   PERIOD      2   STEP        2
 -----------------------------------------------
   NUMBER   CELLID                    RATE      
 -----------------------------------------------
     1      (1,5,5)               0.0000000     
     2      (1,11,5)              0.0000000     
     3      (1,5,5)               0.0000000     
 -----------------------------------------------




 CHD PACKAGE (CHD-FROM-IBOUND) FLOW RATES   PERIOD      2   STEP        2
 -----------------------------------------------
   NUMBER   CELLID                    RATE      
 -----------------------------------------------
     1      (1,1,1)              -2376.9025     
     2      (1,1,2)              -2376.9082     
     3      (1,1,3)              -2376.9066     
     4      (1,1,4)              -2376.9039     
     5      (1,1,5)              -2376.9017     
     6      (1,1,6)              -2376.8999     
     7      (1,1,7)              -2376.8979     
     8      (1,1,8)              -2376.8951     
     9      (1,1,9)              -2376.8922     
     10     (1,21,1)             -2376.8903     
     11     (1,21,2)             -2376.8955     
     12     (1,21,3)             -2376.8994     
     13     (1,21,4)             -2376.9018     
     14     (1,21,5)             -2376.9041     
     15     (1,21,6)             -2376.9073     
     16     (1,21,7)             -2376.9109     
     17     (1,21,8)             -2376.9118     
     18     (1,21,9)             -2376.9016     
 -----------------------------------------------




 HEAD WILL BE SAVED ON UNIT 1016 AT END OF TIME STEP    2, STRESS PERIOD    2


  VOLUME BUDGET FOR ENTIRE MODEL AT END OF TIME STEP    2, STRESS PERIOD   2
  ---------------------------------------------------------------------------------------------------

     CUMULATIVE VOLUME      L**3       RATES FOR THIS TIME STEP      L**3/T          PACKAGE NAME    
     ------------------                 ------------------------                     ----------------

           IN:                                      IN:
           ---                                      ---
              STO-SS =           0.0000                STO-SS =           0.0000     STORAGE                          
              STO-SY =           0.0000                STO-SY =           0.0000     STORAGE                          
                 WEL =           0.0000                   WEL =           0.0000     WEL-1                            
                RCHA =      396169.6030                  RCHA =       85500.0000     RCH-1                            
                 CHD =           0.0000                   CHD =           0.0000     CHD-FROM-IBOUND                  

            TOTAL IN =      396169.6030              TOTAL IN =       85500.0000

          OUT:                                     OUT:
          ----                                     ----
              STO-SS =      170307.4837                STO-SS =       41192.9499     STORAGE                          
              STO-SY =        6298.8265                STO-SY =        1523.4369     STORAGE                          
                 WEL =           0.0000                   WEL =           0.0000     WEL-1                            
                RCHA =           0.0000                  RCHA =           0.0000     RCH-1                            
                 CHD =      219565.6505                   CHD =       42784.2307     CHD-FROM-IBOUND                  

           TOTAL OUT =      396171.9606             TOTAL OUT =       85500.6175

            IN - OUT =          -2.3576              IN - OUT =          -0.6175

 PERCENT DISCREPANCY =          -0.00     PERCENT DISCREPANCY =          -0.00




         TIME SUMMARY AT END OF TIME STEP    2 IN STRESS PERIOD    2
                    SECONDS     MINUTES      HOURS       DAYS        YEARS
                    -----------------------------------------------------------
   TIME STEP LENGTH 1.94804E+05  3246.7      54.112      2.2547     6.17295E-03
 STRESS PERIOD TIME 3.57140E+05  5952.3      99.206      4.1336     1.13171E-02
         TOTAL TIME 4.43540E+05  7392.3      123.21      5.1336     1.40549E-02


end timestep


start timestep kper="2" kstp="3" mode="normal"

 UBDSV1 SAVING     FLOW-JA-FACE ON UNIT   1015 AT TIME STEP      3, STRESS PERIOD      2
 UBDSV06 SAVING              WEL IN MODEL MUMODEL          PACKAGE MUMODEL         CONNECTED TO MODEL MUMODEL          PACKAGE WEL-1            ON UNIT   1015 AT TIME STEP      3, STRESS PERIOD      2
 UBDSV06 SAVING             RCHA IN MODEL MUMODEL          PACKAGE MUMODEL         CONNECTED TO MODEL MUMODEL          PACKAGE RCH-1            ON UNIT   1015 AT TIME STEP      3, STRESS PERIOD      2

 WEL PACKAGE (WEL-1) FLOW RATES   PERIOD      2   STEP        3
 -----------------------------------------------
   NUMBER   CELLID                    RATE      
 -----------------------------------------------
     1      (1,5,5)               0.0000000     
     2      (1,11,5)              0.0000000     
     3      (1,5,5)               0.0000000     
 -----------------------------------------------




 CHD PACKAGE (CHD-FROM-IBOUND) FLOW RATES   PERIOD      2   STEP        3
 -----------------------------------------------
   NUMBER   CELLID                    RATE      
 -----------------------------------------------
     1      (1,1,1)              -2378.2190     
     2      (1,1,2)              -2378.2247     
     3      (1,1,3)              -2378.2232     
     4      (1,1,4)              -2378.2205     
     5      (1,1,5)              -2378.2183     
     6      (1,1,6)              -2378.2165     
     7      (1,1,7)              -2378.2145     
     8      (1,1,8)              -2378.2117     
     9      (1,1,9)              -2378.2088     
     10     (1,21,1)             -2378.2070     
     11     (1,21,2)             -2378.2121     
     12     (1,21,3)             -2378.2160     
     13     (1,21,4)             -2378.2184     
     14     (1,21,5)             -2378.2207     
     15     (1,21,6)             -2378.2239     
     16     (1,21,7)             -2378.2274     
     17     (1,21,8)             -2378.2283     
     18     (1,21,9)             -2378.2182     
 -----------------------------------------------




 HEAD WILL BE SAVED ON UNIT 1016 AT END OF TIME STEP    3, STRESS PERIOD    2


  VOLUME BUDGET FOR ENTIRE MODEL AT END OF TIME STEP    3, STRESS PERIOD   2
  ---------------------------------------------------------------------------------------------------

     CUMULATIVE VOLUME      L**3       RATES FOR THIS TIME STEP      L**3/T          PACKAGE NAME    
     ------------------                 ------------------------                     ----------------

           IN:                                      IN:
           ---                                      ---
              STO-SS =           0.0000                STO-SS =           0.0000     STORAGE                          
              STO-SY =           0.0000                STO-SY =           0.0000     STORAGE                          
                 WEL =           0.0000                   WEL =           0.0000     WEL-1                            
                RCHA =      627498.7977                  RCHA =       85500.0000     RCH-1                            
                 CHD =           0.0000                   CHD =           0.0000     CHD-FROM-IBOUND                  

            TOTAL IN =      627498.7977              TOTAL IN =       85500.0000

          OUT:                                     OUT:
          ----                                     ----
              STO-SS =      281696.4475                STO-SS =       41169.7123     STORAGE                          
              STO-SY =       10417.7269                STO-SY =        1522.3586     STORAGE                          
                 WEL =           0.0000                   WEL =           0.0000     WEL-1                            
                RCHA =           0.0000                  RCHA =           0.0000     RCH-1                            
                 CHD =      335386.9811                   CHD =       42807.9291     CHD-FROM-IBOUND                  

           TOTAL OUT =      627501.1554             TOTAL OUT =       85500.0001

            IN - OUT =          -2.3577              IN - OUT =      -5.1970E-05

 PERCENT DISCREPANCY =          -0.00     PERCENT DISCREPANCY =          -0.00




         TIME SUMMARY AT END OF TIME STEP    3 IN STRESS PERIOD    2
                    SECONDS     MINUTES      HOURS       DAYS        YEARS
                    -----------------------------------------------------------
   TIME STEP LENGTH 2.33764E+05  3896.1      64.935      2.7056     7.40754E-03
 STRESS PERIOD TIME 5.90904E+05  9848.4      164.14      6.8392     1.87246E-02
         TOTAL TIME 6.77304E+05  11288.      188.14      7.8392     2.14625E-02


end timestep


start timestep kper="2" kstp="4" mode="normal"

 UBDSV1 SAVING     FLOW-JA-FACE ON UNIT   1015 AT TIME STEP      4, STRESS PERIOD      2
 UBDSV06 SAVING              WEL IN MODEL MUMODEL          PACKAGE MUMODEL         CONNECTED TO MODEL MUMODEL          PACKAGE WEL-1            ON UNIT   1015 AT TIME STEP      4, STRESS PERIOD      2
 UBDSV06 SAVING             RCHA IN MODEL MUMODEL          PACKAGE MUMODEL         CONNECTED TO MODEL MUMODEL          PACKAGE RCH-1            ON UNIT   1015 AT TIME STEP      4, STRESS PERIOD      2

 WEL PACKAGE (WEL-1) FLOW RATES   PERIOD      2   STEP        4
 -----------------------------------------------
   NUMBER   CELLID                    RATE      
 -----------------------------------------------
     1      (1,5,5)               0.0000000     
     2      (1,11,5)              0.0000000     
     3      (1,5,5)               0.0000000     
 -----------------------------------------------




 CHD PACKAGE (CHD-FROM-IBOUND) FLOW RATES   PERIOD      2   STEP        4
 -----------------------------------------------
   NUMBER   CELLID                    RATE      
 -----------------------------------------------
     1      (1,1,1)              -2379.7315     
     2      (1,1,2)              -2379.7371     
     3      (1,1,3)              -2379.7356     
     4      (1,1,4)              -2379.7330     
     5      (1,1,5)              -2379.7308     
     6      (1,1,6)              -2379.7290     
     7      (1,1,7)              -2379.7269     
     8      (1,1,8)              -2379.7242     
     9      (1,1,9)              -2379.7213     
     10     (1,21,1)             -2379.7195     
     11     (1,21,2)             -2379.7246     
     12     (1,21,3)             -2379.7284     
     13     (1,21,4)             -2379.7308     
     14     (1,21,5)             -2379.7331     
     15     (1,21,6)             -2379.7363     
     16     (1,21,7)             -2379.7398     
     17     (1,21,8)             -2379.7406     
     18     (1,21,9)             -2379.7306     
 -----------------------------------------------




 HEAD WILL BE SAVED ON UNIT 1016 AT END OF TIME STEP    4, STRESS PERIOD    2


  VOLUME BUDGET FOR ENTIRE MODEL AT END OF TIME STEP    4, STRESS PERIOD   2
  ---------------------------------------------------------------------------------------------------

     CUMULATIVE VOLUME      L**3       RATES FOR THIS TIME STEP      L**3/T          PACKAGE NAME    
     ------------------                 ------------------------                     ----------------

           IN:                                      IN:
           ---                                      ---
              STO-SS =           0.0000                STO-SS =           0.0000     STORAGE                          
              STO-SY =           0.0000                STO-SY =           0.0000     STORAGE                          
                 WEL =           0.0000                   WEL =           0.0000     WEL-1                            
                RCHA =      905093.8313                  RCHA =       85500.0000     RCH-1                            
                 CHD =           0.0000                   CHD =           0.0000     CHD-FROM-IBOUND                  

            TOTAL IN =      905093.8313              TOTAL IN =       85500.0000

          OUT:                                     OUT:
          ----                                     ----
              STO-SS =      415278.8005                STO-SS =       41143.7159     STORAGE                          
              STO-SY =       15356.4228                STO-SY =        1521.1313     STORAGE                          
                 WEL =           0.0000                   WEL =           0.0000     WEL-1                            
                RCHA =           0.0000                  RCHA =           0.0000     RCH-1                            
                 CHD =      474460.9661                   CHD =       42835.1529     CHD-FROM-IBOUND                  

           TOTAL OUT =      905096.1894             TOTAL OUT =       85500.0001

            IN - OUT =          -2.3580              IN - OUT =      -8.8481E-05

 PERCENT DISCREPANCY =          -0.00     PERCENT DISCREPANCY =          -0.00




         TIME SUMMARY AT END OF TIME STEP    4 IN STRESS PERIOD    2
                    SECONDS     MINUTES      HOURS       DAYS        YEARS
                    -----------------------------------------------------------
   TIME STEP LENGTH 2.80517E+05  4675.3      77.921      3.2467     8.88905E-03
 STRESS PERIOD TIME 8.71421E+05  14524.      242.06      10.086     2.76137E-02
         TOTAL TIME 9.57821E+05  15964.      266.06      11.086     3.03515E-02


end timestep


start timestep kper="2" kstp="5" mode="normal"

 UBDSV1 SAVING     FLOW-JA-FACE ON UNIT   1015 AT TIME STEP      5, STRESS PERIOD      2
 UBDSV06 SAVING              WEL IN MODEL MUMODEL          PACKAGE MUMODEL         CONNECTED TO MODEL MUMODEL          PACKAGE WEL-1            ON UNIT   1015 AT TIME STEP      5, STRESS PERIOD      2
 UBDSV06 SAVING             RCHA IN MODEL MUMODEL          PACKAGE MUMODEL         CONNECTED TO MODEL MUMODEL          PACKAGE RCH-1            ON UNIT   1015 AT TIME STEP      5, STRESS PERIOD      2

 WEL PACKAGE (WEL-1) FLOW RATES   PERIOD      2   STEP        5
 -----------------------------------------------
   NUMBER   CELLID                    RATE      
 -----------------------------------------------
     1      (1,5,5)               0.0000000     
     2      (1,11,5)              0.0000000     
     3      (1,5,5)               0.0000000     
 -----------------------------------------------




 CHD PACKAGE (CHD-FROM-IBOUND) FLOW RATES   PERIOD      2   STEP        5
 -----------------------------------------------
   NUMBER   CELLID                    RATE      
 -----------------------------------------------
     1      (1,1,1)              -2381.5335     
     2      (1,1,2)              -2381.5390     
     3      (1,1,3)              -2381.5375     
     4      (1,1,4)              -2381.5349     
     5      (1,1,5)              -2381.5328     
     6      (1,1,6)              -2381.5310     
     7      (1,1,7)              -2381.5289     
     8      (1,1,8)              -2381.5262     
     9      (1,1,9)              -2381.5233     
     10     (1,21,1)             -2381.5216     
     11     (1,21,2)             -2381.5267     
     12     (1,21,3)             -2381.5304     
     13     (1,21,4)             -2381.5328     
     14     (1,21,5)             -2381.5351     
     15     (1,21,6)             -2381.5382     
     16     (1,21,7)             -2381.5417     
     17     (1,21,8)             -2381.5424     
     18     (1,21,9)             -2381.5326     
 -----------------------------------------------




 HEAD WILL BE SAVED ON UNIT 1016 AT END OF TIME STEP    5, STRESS PERIOD    2


  VOLUME BUDGET FOR ENTIRE MODEL AT END OF TIME STEP    5, STRESS PERIOD   2
  ---------------------------------------------------------------------------------------------------

     CUMULATIVE VOLUME      L**3       RATES FOR THIS TIME STEP      L**3/T          PACKAGE NAME    
     ------------------                 ------------------------                     ----------------

           IN:                                      IN:
           ---                                      ---
              STO-SS =           0.0000                STO-SS =           0.0000     STORAGE                          
              STO-SY =           0.0000                STO-SY =           0.0000     STORAGE                          
                 WEL =           0.0000                   WEL =           0.0000     WEL-1                            
                RCHA =     1238207.8717                  RCHA =       85500.0000     RCH-1                            
                 CHD =           0.0000                   CHD =           0.0000     CHD-FROM-IBOUND                  

            TOTAL IN =     1238207.8717              TOTAL IN =       85500.0000

          OUT:                                     OUT:
          ----                                     ----
              STO-SS =      575456.9482                STO-SS =       41112.7421     STORAGE                          
              STO-SY =       21277.1627                STO-SY =        1519.6696     STORAGE                          
                 WEL =           0.0000                   WEL =           0.0000     WEL-1                            
                RCHA =           0.0000                  RCHA =           0.0000     RCH-1                            
                 CHD =      641476.1194                   CHD =       42867.5885     CHD-FROM-IBOUND                  

           TOTAL OUT =     1238210.2303             TOTAL OUT =       85500.0001

            IN - OUT =          -2.3586              IN - OUT =      -1.4636E-04

 PERCENT DISCREPANCY =          -0.00     PERCENT DISCREPANCY =          -0.00




         TIME SUMMARY AT END OF TIME STEP    5 IN STRESS PERIOD    2
                    SECONDS     MINUTES      HOURS       DAYS        YEARS
                    -----------------------------------------------------------
   TIME STEP LENGTH 3.36621E+05  5610.3      93.506      3.8961     1.06669E-02
 STRESS PERIOD TIME 1.20804E+06  20134.      335.57      13.982     3.82805E-02
         TOTAL TIME 1.29444E+06  21574.      359.57      14.982     4.10184E-02


end timestep


start timestep kper="2" kstp="6" mode="normal"

 UBDSV1 SAVING     FLOW-JA-FACE ON UNIT   1015 AT TIME STEP      6, STRESS PERIOD      2
 UBDSV06 SAVING              WEL IN MODEL MUMODEL          PACKAGE MUMODEL         CONNECTED TO MODEL MUMODEL          PACKAGE WEL-1            ON UNIT   1015 AT TIME STEP      6, STRESS PERIOD      2
 UBDSV06 SAVING             RCHA IN MODEL MUMODEL          PACKAGE MUMODEL         CONNECTED TO MODEL MUMODEL          PACKAGE RCH-1            ON UNIT   1015 AT TIME STEP      6, STRESS PERIOD      2

 WEL PACKAGE (WEL-1) FLOW RATES   PERIOD      2   STEP        6
 -----------------------------------------------
   NUMBER   CELLID                    RATE      
 -----------------------------------------------
     1      (1,5,5)               0.0000000     
     2      (1,11,5)              0.0000000     
     3      (1,5,5)               0.0000000     
 -----------------------------------------------




 CHD PACKAGE (CHD-FROM-IBOUND) FLOW RATES   PERIOD      2   STEP        6
 -----------------------------------------------
   NUMBER   CELLID                    RATE      
 -----------------------------------------------
     1      (1,1,1)              -2383.6775     
     2      (1,1,2)              -2383.6829     
     3      (1,1,3)              -2383.6815     
     4      (1,1,4)              -2383.6790     
     5      (1,1,5)              -2383.6768     
     6      (1,1,6)              -2383.6750     
     7      (1,1,7)              -2383.6730     
     8      (1,1,8)              -2383.6703     
     9      (1,1,9)              -2383.6674     
     10     (1,21,1)             -2383.6658     
     11     (1,21,2)             -2383.6708     
     12     (1,21,3)             -2383.6745     
     13     (1,21,4)             -2383.6769     
     14     (1,21,5)             -2383.6791     
     15     (1,21,6)             -2383.6822     
     16     (1,21,7)             -2383.6856     
     17     (1,21,8)             -2383.6862     
     18     (1,21,9)             -2383.6767     
 -----------------------------------------------




 HEAD WILL BE SAVED ON UNIT 1016 AT END OF TIME STEP    6, STRESS PERIOD    2


  VOLUME BUDGET FOR ENTIRE MODEL AT END OF TIME STEP    6, STRESS PERIOD   2
  ---------------------------------------------------------------------------------------------------

     CUMULATIVE VOLUME      L**3       RATES FOR THIS TIME STEP      L**3/T          PACKAGE NAME    
     ------------------                 ------------------------                     ----------------

           IN:                                      IN:
           ---                                      ---
              STO-SS =           0.0000                STO-SS =           0.0000     STORAGE                          
              STO-SY =           0.0000                STO-SY =           0.0000     STORAGE                          
                 WEL =           0.0000                   WEL =           0.0000     WEL-1                            
                RCHA =     1637944.7201                  RCHA =       85500.0000     RCH-1                            
                 CHD =           0.0000                   CHD =           0.0000     CHD-FROM-IBOUND                  

            TOTAL IN =     1637944.7201              TOTAL IN =       85500.0000

          OUT:                                     OUT:
          ----                                     ----
              STO-SS =      767498.4213                STO-SS =       41075.8878     STORAGE                          
              STO-SY =       28373.9226                STO-SY =        1517.9310     STORAGE                          
                 WEL =           0.0000                   WEL =           0.0000     WEL-1                            
                RCHA =           0.0000                  RCHA =           0.0000     RCH-1                            
                 CHD =      842074.7360                   CHD =       42906.1814     CHD-FROM-IBOUND                  

           TOTAL OUT =     1637947.0799             TOTAL OUT =       85500.0002

            IN - OUT =          -2.3598              IN - OUT =      -2.4664E-04

 PERCENT DISCREPANCY =          -0.00     PERCENT DISCREPANCY =          -0.00




         TIME SUMMARY AT END OF TIME STEP    6 IN STRESS PERIOD    2
                    SECONDS     MINUTES      HOURS       DAYS        YEARS
                    -----------------------------------------------------------
   TIME STEP LENGTH 4.03945E+05  6732.4      112.21      4.6753     1.28002E-02
 STRESS PERIOD TIME 1.61199E+06  26866.      447.77      18.657     5.10808E-02
         TOTAL TIME 1.69839E+06  28306.      471.77      19.657     5.38186E-02


end timestep


start timestep kper="2" kstp="7" mode="normal"

 UBDSV1 SAVING     FLOW-JA-FACE ON UNIT   1015 AT TIME STEP      7, STRESS PERIOD      2
 UBDSV06 SAVING              WEL IN MODEL MUMODEL          PACKAGE MUMODEL         CONNECTED TO MODEL MUMODEL          PACKAGE WEL-1            ON UNIT   1015 AT TIME STEP      7, STRESS PERIOD      2
 UBDSV06 SAVING             RCHA IN MODEL MUMODEL          PACKAGE MUMODEL         CONNECTED TO MODEL MUMODEL          PACKAGE RCH-1            ON UNIT   1015 AT TIME STEP      7, STRESS PERIOD      2

 WEL PACKAGE (WEL-1) FLOW RATES   PERIOD      2   STEP        7
 -----------------------------------------------
   NUMBER   CELLID                    RATE      
 -----------------------------------------------
     1      (1,5,5)               0.0000000     
     2      (1,11,5)              0.0000000     
     3      (1,5,5)               0.0000000     
 -----------------------------------------------




 CHD PACKAGE (CHD-FROM-IBOUND) FLOW RATES   PERIOD      2   STEP        7
 -----------------------------------------------
   NUMBER   CELLID                    RATE      
 -----------------------------------------------
     1      (1,1,1)              -2386.2246     
     2      (1,1,2)              -2386.2298     
     3      (1,1,3)              -2386.2285     
     4      (1,1,4)              -2386.2260     
     5      (1,1,5)              -2386.2239     
     6      (1,1,6)              -2386.2221     
     7      (1,1,7)              -2386.2201     
     8      (1,1,8)              -2386.2173     
     9      (1,1,9)              -2386.2145     
     10     (1,21,1)             -2386.2130     
     11     (1,21,2)             -2386.2179     
     12     (1,21,3)             -2386.2216     
     13     (1,21,4)             -2386.2239     
     14     (1,21,5)             -2386.2262     
     15     (1,21,6)             -2386.2292     
     16     (1,21,7)             -2386.2325     
     17     (1,21,8)             -2386.2330     
     18     (1,21,9)             -2386.2237     
 -----------------------------------------------




 HEAD WILL BE SAVED ON UNIT 1016 AT END OF TIME STEP    7, STRESS PERIOD    2


  VOLUME BUDGET FOR ENTIRE MODEL AT END OF TIME STEP    7, STRESS PERIOD   2
  ---------------------------------------------------------------------------------------------------

     CUMULATIVE VOLUME      L**3       RATES FOR THIS TIME STEP      L**3/T          PACKAGE NAME    
     ------------------                 ------------------------                     ----------------

           IN:                                      IN:
           ---                                      ---
              STO-SS =           0.0000                STO-SS =           0.0000     STORAGE                          
              STO-SY =           0.0000                STO-SY =           0.0000     STORAGE                          
                 WEL =           0.0000                   WEL =           0.0000     WEL-1                            
                RCHA =     2117628.9383                  RCHA =       85500.0000     RCH-1                            
                 CHD =           0.0000                   CHD =           0.0000     CHD-FROM-IBOUND                  

            TOTAL IN =     2117628.9383              TOTAL IN =       85500.0000

          OUT:                                     OUT:
          ----                                     ----
              STO-SS =      997702.5581                STO-SS =       41032.1060     STORAGE                          
              STO-SY =       36878.4533                STO-SY =        1515.8668     STORAGE                          
                 WEL =           0.0000                   WEL =           0.0000     WEL-1                            
                RCHA =           0.0000                  RCHA =           0.0000     RCH-1                            
                 CHD =     1083050.2890                   CHD =       42952.0276     CHD-FROM-IBOUND                  

           TOTAL OUT =     2117631.3003             TOTAL OUT =       85500.0004

            IN - OUT =          -2.3621              IN - OUT =      -4.1478E-04

 PERCENT DISCREPANCY =          -0.00     PERCENT DISCREPANCY =          -0.00




         TIME SUMMARY AT END OF TIME STEP    7 IN STRESS PERIOD    2
                    SECONDS     MINUTES      HOURS       DAYS        YEARS
                    -----------------------------------------------------------
   TIME STEP LENGTH 4.84734E+05  8078.9      134.65      5.6103     1.53603E-02
 STRESS PERIOD TIME 2.09672E+06  34945.      582.42      24.268     6.64410E-02
         TOTAL TIME 2.18312E+06  36385.      606.42      25.268     6.91789E-02


end timestep


start timestep kper="2" kstp="8" mode="normal"

 UBDSV1 SAVING     FLOW-JA-FACE ON UNIT   1015 AT TIME STEP      8, STRESS PERIOD      2
 UBDSV06 SAVING              WEL IN MODEL MUMODEL          PACKAGE MUMODEL         CONNECTED TO MODEL MUMODEL          PACKAGE WEL-1            ON UNIT   1015 AT TIME STEP      8, STRESS PERIOD      2
 UBDSV06 SAVING             RCHA IN MODEL MUMODEL          PACKAGE MUMODEL         CONNECTED TO MODEL MUMODEL          PACKAGE RCH-1            ON UNIT   1015 AT TIME STEP      8, STRESS PERIOD      2

 WEL PACKAGE (WEL-1) FLOW RATES   PERIOD      2   STEP        8
 -----------------------------------------------
   NUMBER   CELLID                    RATE      
 -----------------------------------------------
     1      (1,5,5)               0.0000000     
     2      (1,11,5)              0.0000000     
     3      (1,5,5)               0.0000000     
 -----------------------------------------------




 CHD PACKAGE (CHD-FROM-IBOUND) FLOW RATES   PERIOD      2   STEP        8
 -----------------------------------------------
   NUMBER   CELLID                    RATE      
 -----------------------------------------------
     1      (1,1,1)              -2389.2447     
     2      (1,1,2)              -2389.2498     
     3      (1,1,3)              -2389.2486     
     4      (1,1,4)              -2389.2461     
     5      (1,1,5)              -2389.2440     
     6      (1,1,6)              -2389.2422     
     7      (1,1,7)              -2389.2402     
     8      (1,1,8)              -2389.2375     
     9      (1,1,9)              -2389.2347     
     10     (1,21,1)             -2389.2332     
     11     (1,21,2)             -2389.2381     
     12     (1,21,3)             -2389.2417     
     13     (1,21,4)             -2389.2440     
     14     (1,21,5)             -2389.2463     
     15     (1,21,6)             -2389.2493     
     16     (1,21,7)             -2389.2525     
     17     (1,21,8)             -2389.2529     
     18     (1,21,9)             -2389.2438     
 -----------------------------------------------




 HEAD WILL BE SAVED ON UNIT 1016 AT END OF TIME STEP    8, STRESS PERIOD    2


  VOLUME BUDGET FOR ENTIRE MODEL AT END OF TIME STEP    8, STRESS PERIOD   2
  ---------------------------------------------------------------------------------------------------

     CUMULATIVE VOLUME      L**3       RATES FOR THIS TIME STEP      L**3/T          PACKAGE NAME    
     ------------------                 ------------------------                     ----------------

           IN:                                      IN:
           ---                                      ---
              STO-SS =           0.0000                STO-SS =           0.0000     STORAGE                          
              STO-SY =           0.0000                STO-SY =           0.0000     STORAGE                          
                 WEL =           0.0000                   WEL =           0.0000     WEL-1                            
                RCHA =     2693250.0000                  RCHA =       85500.0000     RCH-1                            
                 CHD =           0.0000                   CHD =           0.0000     CHD-FROM-IBOUND                  

            TOTAL IN =     2693250.0000              TOTAL IN =       85500.0000

          OUT:                                     OUT:
          ----                                     ----
              STO-SS =     1273598.0071                STO-SS =       40980.1907     STORAGE                          
              STO-SY =       47067.4208                STO-SY =        1513.4205     STORAGE                          
                 WEL =           0.0000                   WEL =           0.0000     WEL-1                            
                RCHA =           0.0000                  RCHA =           0.0000     RCH-1                            
                 CHD =     1372586.9388                   CHD =       43006.3895     CHD-FROM-IBOUND                  

           TOTAL OUT =     2693252.3667             TOTAL OUT =       85500.0007

            IN - OUT =          -2.3667              IN - OUT =      -6.9033E-04

 PERCENT DISCREPANCY =          -0.00     PERCENT DISCREPANCY =          -0.00




         TIME SUMMARY AT END OF TIME STEP    8 IN STRESS PERIOD    2
                    SECONDS     MINUTES      HOURS       DAYS        YEARS
                    -----------------------------------------------------------
   TIME STEP LENGTH 5.81680E+05  9694.7      161.58      6.7324     1.84323E-02
 STRESS PERIOD TIME 2.67840E+06  44640.      744.00      31.000     8.48734E-02
         TOTAL TIME 2.76480E+06  46080.      768.00      32.000     8.76112E-02


end timestep


start timestep kper="3" kstp="1" mode="normal"


 OUTPUT CONTROL FOR STRESS PERIOD 3 IS REPEATED USING SETTINGS FROM A PREVIOUS STRESS PERIOD.


 STRESS PERIOD 3 IS TRANSIENT


 REUSING WELS FROM LAST STRESS PERIOD

 REUSING CHDS FROM LAST STRESS PERIOD
 UBDSV1 SAVING     FLOW-JA-FACE ON UNIT   1015 AT TIME STEP      1, STRESS PERIOD      3
 UBDSV06 SAVING              WEL IN MODEL MUMODEL          PACKAGE MUMODEL         CONNECTED TO MODEL MUMODEL          PACKAGE WEL-1            ON UNIT   1015 AT TIME STEP      1, STRESS PERIOD      3
 UBDSV06 SAVING             RCHA IN MODEL MUMODEL          PACKAGE MUMODEL         CONNECTED TO MODEL MUMODEL          PACKAGE RCH-1            ON UNIT   1015 AT TIME STEP      1, STRESS PERIOD      3

 WEL PACKAGE (WEL-1) FLOW RATES   PERIOD      3   STEP        1
 -----------------------------------------------
   NUMBER   CELLID                    RATE      
 -----------------------------------------------
     1      (1,5,5)               0.0000000     
     2      (1,11,5)              0.0000000     
     3      (1,5,5)               0.0000000     
 -----------------------------------------------




 CHD PACKAGE (CHD-FROM-IBOUND) FLOW RATES   PERIOD      3   STEP        1
 -----------------------------------------------
   NUMBER   CELLID                    RATE      
 -----------------------------------------------
     1      (1,1,1)              -2393.2155     
     2      (1,1,2)              -2393.2206     
     3      (1,1,3)              -2393.2194     
     4      (1,1,4)              -2393.2169     
     5      (1,1,5)              -2393.2148     
     6      (1,1,6)              -2393.2131     
     7      (1,1,7)              -2393.2111     
     8      (1,1,8)              -2393.2084     
     9      (1,1,9)              -2393.2055     
     10     (1,21,1)             -2393.2041     
     11     (1,21,2)             -2393.2090     
     12     (1,21,3)             -2393.2126     
     13     (1,21,4)             -2393.2149     
     14     (1,21,5)             -2393.2171     
     15     (1,21,6)             -2393.2201     
     16     (1,21,7)             -2393.2233     
     17     (1,21,8)             -2393.2237     
     18     (1,21,9)             -2393.2147     
 -----------------------------------------------




 HEAD WILL BE SAVED ON UNIT 1016 AT END OF TIME STEP    1, STRESS PERIOD    3


  VOLUME BUDGET FOR ENTIRE MODEL AT END OF TIME STEP    1, STRESS PERIOD   3
  ---------------------------------------------------------------------------------------------------

     CUMULATIVE VOLUME      L**3       RATES FOR THIS TIME STEP      L**3/T          PACKAGE NAME    
     ------------------                 ------------------------                     ----------------

           IN:                                      IN:
           ---                                      ---
              STO-SS =           0.0000                STO-SS =           0.0000     STORAGE                          
              STO-SY =           0.0000                STO-SY =           0.0000     STORAGE                          
                 WEL =           0.0000                   WEL =           0.0000     WEL-1                            
                RCHA =     3128546.8717                  RCHA =      256500.0000     RCH-1                            
                 CHD =           0.0000                   CHD =           0.0000     CHD-FROM-IBOUND                  

            TOTAL IN =     3128546.8717              TOTAL IN =      256500.0000

          OUT:                                     OUT:
          ----                                     ----
              STO-SS =     1622879.0385                STO-SS =      205814.9056     STORAGE                          
              STO-SY =       59977.3753                STO-SY =        7607.2298     STORAGE                          
                 WEL =           0.0000                   WEL =           0.0000     WEL-1                            
                RCHA =           0.0000                  RCHA =           0.0000     RCH-1                            
                 CHD =     1445692.8248                   CHD =       43077.8647     CHD-FROM-IBOUND                  

           TOTAL OUT =     3128549.2386             TOTAL OUT =      256500.0001

            IN - OUT =          -2.3668              IN - OUT =      -6.4160E-05

 PERCENT DISCREPANCY =          -0.00     PERCENT DISCREPANCY =          -0.00




         TIME SUMMARY AT END OF TIME STEP    1 IN STRESS PERIOD    3
                    SECONDS     MINUTES      HOURS       DAYS        YEARS
                    -----------------------------------------------------------
   TIME STEP LENGTH 1.46626E+05  2443.8      40.730      1.6971     4.64631E-03
 STRESS PERIOD TIME 1.46626E+05  2443.8      40.730      1.6971     4.64631E-03
         TOTAL TIME 2.91143E+06  48524.      808.73      33.697     9.22575E-02


end timestep


start timestep kper="3" kstp="2" mode="normal"

 UBDSV1 SAVING     FLOW-JA-FACE ON UNIT   1015 AT TIME STEP      2, STRESS PERIOD      3
 UBDSV06 SAVING              WEL IN MODEL MUMODEL          PACKAGE MUMODEL         CONNECTED TO MODEL MUMODEL          PACKAGE WEL-1            ON UNIT   1015 AT TIME STEP      2, STRESS PERIOD      3
 UBDSV06 SAVING             RCHA IN MODEL MUMODEL          PACKAGE MUMODEL         CONNECTED TO MODEL MUMODEL          PACKAGE RCH-1            ON UNIT   1015 AT TIME STEP      2, STRESS PERIOD      3

 WEL PACKAGE (WEL-1) FLOW RATES   PERIOD      3   STEP        2
 -----------------------------------------------
   NUMBER   CELLID                    RATE      
 -----------------------------------------------
     1      (1,5,5)               0.0000000     
     2      (1,11,5)              0.0000000     
     3      (1,5,5)               0.0000000     
 -----------------------------------------------




 CHD PACKAGE (CHD-FROM-IBOUND) FLOW RATES   PERIOD      3   STEP        2
 -----------------------------------------------
   NUMBER   CELLID                    RATE      
 -----------------------------------------------
     1      (1,1,1)              -2397.9624     
     2      (1,1,2)              -2397.9674     
     3      (1,1,3)              -2397.9663     
     4      (1,1,4)              -2397.9639     
     5      (1,1,5)              -2397.9617     
     6      (1,1,6)              -2397.9600     
     7      (1,1,7)              -2397.9580     
     8      (1,1,8)              -2397.9553     
     9      (1,1,9)              -2397.9525     
     10     (1,21,1)             -2397.9511     
     11     (1,21,2)             -2397.9559     
     12     (1,21,3)             -2397.9595     
     13     (1,21,4)             -2397.9618     
     14     (1,21,5)             -2397.9640     
     15     (1,21,6)             -2397.9670     
     16     (1,21,7)             -2397.9702     
     17     (1,21,8)             -2397.9705     
     18     (1,21,9)             -2397.9616     
 -----------------------------------------------




 HEAD WILL BE SAVED ON UNIT 1016 AT END OF TIME STEP    2, STRESS PERIOD    3


  VOLUME BUDGET FOR ENTIRE MODEL AT END OF TIME STEP    2, STRESS PERIOD   3
  ---------------------------------------------------------------------------------------------------

     CUMULATIVE VOLUME      L**3       RATES FOR THIS TIME STEP      L**3/T          PACKAGE NAME    
     ------------------                 ------------------------                     ----------------

           IN:                                      IN:
           ---                                      ---
              STO-SS =           0.0000                STO-SS =           0.0000     STORAGE                          
              STO-SY =           0.0000                STO-SY =           0.0000     STORAGE                          
                 WEL =           0.0000                   WEL =           0.0000     WEL-1                            
                RCHA =     3650903.1178                  RCHA =      256500.0000     RCH-1                            
                 CHD =           0.0000                   CHD =           0.0000     CHD-FROM-IBOUND                  

            TOTAL IN =     3650903.1178              TOTAL IN =      256500.0000

          OUT:                                     OUT:
          ----                                     ----
              STO-SS =     2041851.6172                STO-SS =      205734.0507     STORAGE                          
              STO-SY =       75459.9743                STO-SY =        7602.6403     STORAGE                          
                 WEL =           0.0000                   WEL =           0.0000     WEL-1                            
                RCHA =           0.0000                  RCHA =           0.0000     RCH-1                            
                 CHD =     1533593.8935                   CHD =       43163.3091     CHD-FROM-IBOUND                  

           TOTAL OUT =     3650905.4849             TOTAL OUT =      256500.0001

            IN - OUT =          -2.3671              IN - OUT =      -1.1465E-04

 PERCENT DISCREPANCY =          -0.00     PERCENT DISCREPANCY =          -0.00




         TIME SUMMARY AT END OF TIME STEP    2 IN STRESS PERIOD    3
                    SECONDS     MINUTES      HOURS       DAYS        YEARS
                    -----------------------------------------------------------
   TIME STEP LENGTH 1.75952E+05  2932.5      48.875      2.0365     5.57557E-03
 STRESS PERIOD TIME 3.22578E+05  5376.3      89.605      3.7335     1.02219E-02
         TOTAL TIME 3.08738E+06  51456.      857.60      35.734     9.78331E-02


end timestep


start timestep kper="3" kstp="3" mode="normal"

 UBDSV1 SAVING     FLOW-JA-FACE ON UNIT   1015 AT TIME STEP      3, STRESS PERIOD      3
 UBDSV06 SAVING              WEL IN MODEL MUMODEL          PACKAGE MUMODEL         CONNECTED TO MODEL MUMODEL          PACKAGE WEL-1            ON UNIT   1015 AT TIME STEP      3, STRESS PERIOD      3
 UBDSV06 SAVING             RCHA IN MODEL MUMODEL          PACKAGE MUMODEL         CONNECTED TO MODEL MUMODEL          PACKAGE RCH-1            ON UNIT   1015 AT TIME STEP      3, STRESS PERIOD      3

 WEL PACKAGE (WEL-1) FLOW RATES   PERIOD      3   STEP        3
 -----------------------------------------------
   NUMBER   CELLID                    RATE      
 -----------------------------------------------
     1      (1,5,5)               0.0000000     
     2      (1,11,5)              0.0000000     
     3      (1,5,5)               0.0000000     
 -----------------------------------------------




 CHD PACKAGE (CHD-FROM-IBOUND) FLOW RATES   PERIOD      3   STEP        3
 -----------------------------------------------
   NUMBER   CELLID                    RATE      
 -----------------------------------------------
     1      (1,1,1)              -2403.6330     
     2      (1,1,2)              -2403.6379     
     3      (1,1,3)              -2403.6368     
     4      (1,1,4)              -2403.6344     
     5      (1,1,5)              -2403.6323     
     6      (1,1,6)              -2403.6305     
     7      (1,1,7)              -2403.6285     
     8      (1,1,8)              -2403.6259     
     9      (1,1,9)              -2403.6231     
     10     (1,21,1)             -2403.6217     
     11     (1,21,2)             -2403.6265     
     12     (1,21,3)             -2403.6301     
     13     (1,21,4)             -2403.6323     
     14     (1,21,5)             -2403.6346     
     15     (1,21,6)             -2403.6375     
     16     (1,21,7)             -2403.6407     
     17     (1,21,8)             -2403.6409     
     18     (1,21,9)             -2403.6322     
 -----------------------------------------------




 HEAD WILL BE SAVED ON UNIT 1016 AT END OF TIME STEP    3, STRESS PERIOD    3


  VOLUME BUDGET FOR ENTIRE MODEL AT END OF TIME STEP    3, STRESS PERIOD   3
  ---------------------------------------------------------------------------------------------------

     CUMULATIVE VOLUME      L**3       RATES FOR THIS TIME STEP      L**3/T          PACKAGE NAME    
     ------------------                 ------------------------                     ----------------

           IN:                                      IN:
           ---                                      ---
              STO-SS =           0.0000                STO-SS =           0.0000     STORAGE                          
              STO-SY =           0.0000                STO-SY =           0.0000     STORAGE                          
                 WEL =           0.0000                   WEL =           0.0000     WEL-1                            
                RCHA =     4277730.6131                  RCHA =      256500.0000     RCH-1                            
                 CHD =           0.0000                   CHD =           0.0000     CHD-FROM-IBOUND                  

            TOTAL IN =     4277730.6131              TOTAL IN =      256500.0000

          OUT:                                     OUT:
          ----                                     ----
              STO-SS =     2544382.6758                STO-SS =      205637.4641     STORAGE                          
              STO-SY =       94025.6936                STO-SY =        7597.1572     STORAGE                          
                 WEL =           0.0000                   WEL =           0.0000     WEL-1                            
                RCHA =           0.0000                  RCHA =           0.0000     RCH-1                            
                 CHD =     1639324.6113                   CHD =       43265.3790     CHD-FROM-IBOUND                  

           TOTAL OUT =     4277732.9807             TOTAL OUT =      256500.0002

            IN - OUT =          -2.3675              IN - OUT =      -1.9363E-04

 PERCENT DISCREPANCY =          -0.00     PERCENT DISCREPANCY =          -0.00




         TIME SUMMARY AT END OF TIME STEP    3 IN STRESS PERIOD    3
                    SECONDS     MINUTES      HOURS       DAYS        YEARS
                    -----------------------------------------------------------
   TIME STEP LENGTH 2.11142E+05  3519.0      58.651      2.4438     6.69068E-03
 STRESS PERIOD TIME 5.33720E+05  8895.3      148.26      6.1773     1.69126E-02
         TOTAL TIME 3.29852E+06  54975.      916.26      38.177     0.10452    


end timestep


start timestep kper="3" kstp="4" mode="normal"

 UBDSV1 SAVING     FLOW-JA-FACE ON UNIT   1015 AT TIME STEP      4, STRESS PERIOD      3
 UBDSV06 SAVING              WEL IN MODEL MUMODEL          PACKAGE MUMODEL         CONNECTED TO MODEL MUMODEL          PACKAGE WEL-1            ON UNIT   1015 AT TIME STEP      4, STRESS PERIOD      3
 UBDSV06 SAVING             RCHA IN MODEL MUMODEL          PACKAGE MUMODEL         CONNECTED TO MODEL MUMODEL          PACKAGE RCH-1            ON UNIT   1015 AT TIME STEP      4, STRESS PERIOD      3

 WEL PACKAGE (WEL-1) FLOW RATES   PERIOD      3   STEP        4
 -----------------------------------------------
   NUMBER   CELLID                    RATE      
 -----------------------------------------------
     1      (1,5,5)               0.0000000     
     2      (1,11,5)              0.0000000     
     3      (1,5,5)               0.0000000     
 -----------------------------------------------




 CHD PACKAGE (CHD-FROM-IBOUND) FLOW RATES   PERIOD      3   STEP        4
 -----------------------------------------------
   NUMBER   CELLID                    RATE      
 -----------------------------------------------
     1      (1,1,1)              -2410.4010     
     2      (1,1,2)              -2410.4059     
     3      (1,1,3)              -2410.4048     
     4      (1,1,4)              -2410.4024     
     5      (1,1,5)              -2410.4003     
     6      (1,1,6)              -2410.3985     
     7      (1,1,7)              -2410.3965     
     8      (1,1,8)              -2410.3939     
     9      (1,1,9)              -2410.3911     
     10     (1,21,1)             -2410.3898     
     11     (1,21,2)             -2410.3945     
     12     (1,21,3)             -2410.3981     
     13     (1,21,4)             -2410.4003     
     14     (1,21,5)             -2410.4025     
     15     (1,21,6)             -2410.4055     
     16     (1,21,7)             -2410.4086     
     17     (1,21,8)             -2410.4088     
     18     (1,21,9)             -2410.4001     
 -----------------------------------------------




 HEAD WILL BE SAVED ON UNIT 1016 AT END OF TIME STEP    4, STRESS PERIOD    3


  VOLUME BUDGET FOR ENTIRE MODEL AT END OF TIME STEP    4, STRESS PERIOD   3
  ---------------------------------------------------------------------------------------------------

     CUMULATIVE VOLUME      L**3       RATES FOR THIS TIME STEP      L**3/T          PACKAGE NAME    
     ------------------                 ------------------------                     ----------------

           IN:                                      IN:
           ---                                      ---
              STO-SS =           0.0000                STO-SS =           0.0000     STORAGE                          
              STO-SY =           0.0000                STO-SY =           0.0000     STORAGE                          
                 WEL =           0.0000                   WEL =           0.0000     WEL-1                            
                RCHA =     5029923.6075                  RCHA =      256500.0000     RCH-1                            
                 CHD =           0.0000                   CHD =           0.0000     CHD-FROM-IBOUND                  

            TOTAL IN =     5029923.6075              TOTAL IN =      256500.0000

          OUT:                                     OUT:
          ----                                     ----
              STO-SS =     3147081.8893                STO-SS =      205522.1857     STORAGE                          
              STO-SY =      116285.3629                STO-SY =        7590.6120     STORAGE                          
                 WEL =           0.0000                   WEL =           0.0000     WEL-1                            
                RCHA =           0.0000                  RCHA =           0.0000     RCH-1                            
                 CHD =     1766558.7239                   CHD =       43387.2026     CHD-FROM-IBOUND                  

           TOTAL OUT =     5029925.9760             TOTAL OUT =      256500.0003

            IN - OUT =          -2.3685              IN - OUT =      -3.2623E-04

 PERCENT DISCREPANCY =          -0.00     PERCENT DISCREPANCY =          -0.00




         TIME SUMMARY AT END OF TIME STEP    4 IN STRESS PERIOD    3
                    SECONDS     MINUTES      HOURS       DAYS        YEARS
                    -----------------------------------------------------------
   TIME STEP LENGTH 2.53370E+05  4222.8      70.381      2.9325     8.02882E-03
 STRESS PERIOD TIME 7.87090E+05  13118.      218.64      9.1098     2.49414E-02
         TOTAL TIME 3.55189E+06  59198.      986.64      41.110     0.11255    


end timestep


start timestep kper="3" kstp="5" mode="normal"

 UBDSV1 SAVING     FLOW-JA-FACE ON UNIT   1015 AT TIME STEP      5, STRESS PERIOD      3
 UBDSV06 SAVING              WEL IN MODEL MUMODEL          PACKAGE MUMODEL         CONNECTED TO MODEL MUMODEL          PACKAGE WEL-1            ON UNIT   1015 AT TIME STEP      5, STRESS PERIOD      3
 UBDSV06 SAVING             RCHA IN MODEL MUMODEL          PACKAGE MUMODEL         CONNECTED TO MODEL MUMODEL          PACKAGE RCH-1            ON UNIT   1015 AT TIME STEP      5, STRESS PERIOD      3

 WEL PACKAGE (WEL-1) FLOW RATES   PERIOD      3   STEP        5
 -----------------------------------------------
   NUMBER   CELLID                    RATE      
 -----------------------------------------------
     1      (1,5,5)               0.0000000     
     2      (1,11,5)              0.0000000     
     3      (1,5,5)               0.0000000     
 -----------------------------------------------




 CHD PACKAGE (CHD-FROM-IBOUND) FLOW RATES   PERIOD      3   STEP        5
 -----------------------------------------------
   NUMBER   CELLID                    RATE      
 -----------------------------------------------
     1      (1,1,1)              -2418.4704     
     2      (1,1,2)              -2418.4752     
     3      (1,1,3)              -2418.4742     
     4      (1,1,4)              -2418.4718     
     5      (1,1,5)              -2418.4697     
     6      (1,1,6)              -2418.4680     
     7      (1,1,7)              -2418.4660     
     8      (1,1,8)              -2418.4634     
     9      (1,1,9)              -2418.4606     
     10     (1,21,1)             -2418.4593     
     11     (1,21,2)             -2418.4640     
     12     (1,21,3)             -2418.4676     
     13     (1,21,4)             -2418.4698     
     14     (1,21,5)             -2418.4720     
     15     (1,21,6)             -2418.4749     
     16     (1,21,7)             -2418.4780     
     17     (1,21,8)             -2418.4782     
     18     (1,21,9)             -2418.4696     
 -----------------------------------------------




 HEAD WILL BE SAVED ON UNIT 1016 AT END OF TIME STEP    5, STRESS PERIOD    3


  VOLUME BUDGET FOR ENTIRE MODEL AT END OF TIME STEP    5, STRESS PERIOD   3
  ---------------------------------------------------------------------------------------------------

     CUMULATIVE VOLUME      L**3       RATES FOR THIS TIME STEP      L**3/T          PACKAGE NAME    
     ------------------                 ------------------------                     ----------------

           IN:                                      IN:
           ---                                      ---
              STO-SS =           0.0000                STO-SS =           0.0000     STORAGE                          
              STO-SY =           0.0000                STO-SY =           0.0000     STORAGE                          
                 WEL =           0.0000                   WEL =           0.0000     WEL-1                            
                RCHA =     5932555.2007                  RCHA =      256500.0000     RCH-1                            
                 CHD =           0.0000                   CHD =           0.0000     CHD-FROM-IBOUND                  

            TOTAL IN =     5932555.2007              TOTAL IN =      256500.0000

          OUT:                                     OUT:
          ----                                     ----
              STO-SS =     3869837.2725                STO-SS =      205384.7408     STORAGE                          
              STO-SY =      142969.4996                STO-SY =        7582.8069     STORAGE                          
                 WEL =           0.0000                   WEL =           0.0000     WEL-1                            
                RCHA =           0.0000                  RCHA =           0.0000     RCH-1                            
                 CHD =     1919750.7991                   CHD =       43532.4529     CHD-FROM-IBOUND                  

           TOTAL OUT =     5932557.5712             TOTAL OUT =      256500.0006

            IN - OUT =          -2.3705              IN - OUT =      -5.6060E-04

 PERCENT DISCREPANCY =          -0.00     PERCENT DISCREPANCY =          -0.00




         TIME SUMMARY AT END OF TIME STEP    5 IN STRESS PERIOD    3
                    SECONDS     MINUTES      HOURS       DAYS        YEARS
                    -----------------------------------------------------------
   TIME STEP LENGTH 3.04044E+05  5067.4      84.457      3.5190     9.63458E-03
 STRESS PERIOD TIME 1.09113E+06  18186.      303.09      12.629     3.45760E-02
         TOTAL TIME 3.85593E+06  64266.      1071.1      44.629     0.12219    


end timestep


start timestep kper="3" kstp="6" mode="normal"

 UBDSV1 SAVING     FLOW-JA-FACE ON UNIT   1015 AT TIME STEP      6, STRESS PERIOD      3
 UBDSV06 SAVING              WEL IN MODEL MUMODEL          PACKAGE MUMODEL         CONNECTED TO MODEL MUMODEL          PACKAGE WEL-1            ON UNIT   1015 AT TIME STEP      6, STRESS PERIOD      3
 UBDSV06 SAVING             RCHA IN MODEL MUMODEL          PACKAGE MUMODEL         CONNECTED TO MODEL MUMODEL          PACKAGE RCH-1            ON UNIT   1015 AT TIME STEP      6, STRESS PERIOD      3

 WEL PACKAGE (WEL-1) FLOW RATES   PERIOD      3   STEP        6
 -----------------------------------------------
[...]

           TOTAL OUT =    86591387.4508             TOTAL OUT =       66645.8674

            IN - OUT =          -6.3077              IN - OUT =      -1.8899E-04

 PERCENT DISCREPANCY =          -0.00     PERCENT DISCREPANCY =          -0.00




         TIME SUMMARY AT END OF TIME STEP    4 IN STRESS PERIOD   25
                    SECONDS     MINUTES      HOURS       DAYS        YEARS
                    -----------------------------------------------------------
   TIME STEP LENGTH 2.80517E+05  4675.3      77.921      3.2467     8.88905E-03
 STRESS PERIOD TIME 8.71421E+05  14524.      242.06      10.086     2.76137E-02
         TOTAL TIME 6.13514E+07 1.02252E+06  17042.      710.09      1.9441    


end timestep


start timestep kper="25" kstp="5" mode="normal"

 UBDSV1 SAVING     FLOW-JA-FACE ON UNIT   1015 AT TIME STEP      5, STRESS PERIOD     25
 UBDSV06 SAVING              WEL IN MODEL MUMODEL          PACKAGE MUMODEL         CONNECTED TO MODEL MUMODEL          PACKAGE WEL-1            ON UNIT   1015 AT TIME STEP      5, STRESS PERIOD     25
 UBDSV06 SAVING             RCHA IN MODEL MUMODEL          PACKAGE MUMODEL         CONNECTED TO MODEL MUMODEL          PACKAGE RCH-1            ON UNIT   1015 AT TIME STEP      5, STRESS PERIOD     25

 WEL PACKAGE (WEL-1) FLOW RATES   PERIOD     25   STEP        5
 -----------------------------------------------
   NUMBER   CELLID                    RATE      
 -----------------------------------------------
     1      (1,5,5)              -20000.000     
     2      (1,11,5)              0.0000000     
     3      (1,5,5)               0.0000000     
 -----------------------------------------------




 CHD PACKAGE (CHD-FROM-IBOUND) FLOW RATES   PERIOD     25   STEP        5
 -----------------------------------------------
   NUMBER   CELLID                    RATE      
 -----------------------------------------------
     1      (1,1,1)              -2594.0553     
     2      (1,1,2)              -2593.5414     
     3      (1,1,3)              -2590.8338     
     4      (1,1,4)              -2581.1963     
     5      (1,1,5)              -2564.8323     
     6      (1,1,6)              -2581.1946     
     7      (1,1,7)              -2590.8306     
     8      (1,1,8)              -2593.5372     
     9      (1,1,9)              -2594.0506     
     10     (1,21,1)             -2594.1526     
     11     (1,21,2)             -2594.1535     
     12     (1,21,3)             -2594.1547     
     13     (1,21,4)             -2594.1559     
     14     (1,21,5)             -2594.1568     
     15     (1,21,6)             -2594.1574     
     16     (1,21,7)             -2594.1574     
     17     (1,21,8)             -2594.1565     
     18     (1,21,9)             -2594.1556     
 -----------------------------------------------




 HEAD WILL BE SAVED ON UNIT 1016 AT END OF TIME STEP    5, STRESS PERIOD   25


  VOLUME BUDGET FOR ENTIRE MODEL AT END OF TIME STEP    5, STRESS PERIOD  25
  ---------------------------------------------------------------------------------------------------

     CUMULATIVE VOLUME      L**3       RATES FOR THIS TIME STEP      L**3/T          PACKAGE NAME    
     ------------------                 ------------------------                     ----------------

           IN:                                      IN:
           ---                                      ---
              STO-SS =    18743071.8597                STO-SS =       22979.1668     STORAGE                          
              STO-SY =      709031.2712                STO-SY =         902.3056     STORAGE                          
                 WEL =           0.0000                   WEL =           0.0000     WEL-1                            
                RCHA =    67398878.9358                  RCHA =       42750.0000     RCH-1                            
                 CHD =           0.0000                   CHD =           0.0000     CHD-FROM-IBOUND                  

            TOTAL IN =    86850982.0668              TOTAL IN =       66631.4724

          OUT:                                     OUT:
          ----                                     ----
              STO-SS =    45065158.4270                STO-SS =           0.0000     STORAGE                          
              STO-SY =     1649632.5699                STO-SY =           0.0000     STORAGE                          
                 WEL =     6959639.2682                   WEL =       20000.0000     WEL-1                            
                RCHA =           0.0000                  RCHA =           0.0000     RCH-1                            
                 CHD =    33176558.1106                   CHD =       46631.4727     CHD-FROM-IBOUND                  

           TOTAL OUT =    86850988.3757             TOTAL OUT =       66631.4727

            IN - OUT =          -6.3089              IN - OUT =      -3.1370E-04

 PERCENT DISCREPANCY =          -0.00     PERCENT DISCREPANCY =          -0.00




         TIME SUMMARY AT END OF TIME STEP    5 IN STRESS PERIOD   25
                    SECONDS     MINUTES      HOURS       DAYS        YEARS
                    -----------------------------------------------------------
   TIME STEP LENGTH 3.36621E+05  5610.3      93.506      3.8961     1.06669E-02
 STRESS PERIOD TIME 1.20804E+06  20134.      335.57      13.982     3.82805E-02
         TOTAL TIME 6.16880E+07 1.02813E+06  17136.      713.98      1.9548    


end timestep


start timestep kper="25" kstp="6" mode="normal"

 UBDSV1 SAVING     FLOW-JA-FACE ON UNIT   1015 AT TIME STEP      6, STRESS PERIOD     25
 UBDSV06 SAVING              WEL IN MODEL MUMODEL          PACKAGE MUMODEL         CONNECTED TO MODEL MUMODEL          PACKAGE WEL-1            ON UNIT   1015 AT TIME STEP      6, STRESS PERIOD     25
 UBDSV06 SAVING             RCHA IN MODEL MUMODEL          PACKAGE MUMODEL         CONNECTED TO MODEL MUMODEL          PACKAGE RCH-1            ON UNIT   1015 AT TIME STEP      6, STRESS PERIOD     25

 WEL PACKAGE (WEL-1) FLOW RATES   PERIOD     25   STEP        6
 -----------------------------------------------
   NUMBER   CELLID                    RATE      
 -----------------------------------------------
     1      (1,5,5)              -20000.000     
     2      (1,11,5)              0.0000000     
     3      (1,5,5)               0.0000000     
 -----------------------------------------------




 CHD PACKAGE (CHD-FROM-IBOUND) FLOW RATES   PERIOD     25   STEP        6
 -----------------------------------------------
   NUMBER   CELLID                    RATE      
 -----------------------------------------------
     1      (1,1,1)              -2593.2372     
     2      (1,1,2)              -2592.6903     
     3      (1,1,3)              -2589.8415     
     4      (1,1,4)              -2579.8188     
     5      (1,1,5)              -2563.0111     
     6      (1,1,6)              -2579.8171     
     7      (1,1,7)              -2589.8383     
     8      (1,1,8)              -2592.6862     
     9      (1,1,9)              -2593.2325     
     10     (1,21,1)             -2593.3426     
     11     (1,21,2)             -2593.3435     
     12     (1,21,3)             -2593.3447     
     13     (1,21,4)             -2593.3458     
     14     (1,21,5)             -2593.3468     
     15     (1,21,6)             -2593.3474     
     16     (1,21,7)             -2593.3473     
     17     (1,21,8)             -2593.3465     
     18     (1,21,9)             -2593.3455     
 -----------------------------------------------




 HEAD WILL BE SAVED ON UNIT 1016 AT END OF TIME STEP    6, STRESS PERIOD   25


  VOLUME BUDGET FOR ENTIRE MODEL AT END OF TIME STEP    6, STRESS PERIOD  25
  ---------------------------------------------------------------------------------------------------

     CUMULATIVE VOLUME      L**3       RATES FOR THIS TIME STEP      L**3/T          PACKAGE NAME    
     ------------------                 ------------------------                     ----------------

           IN:                                      IN:
           ---                                      ---
              STO-SS =    18850429.2620                STO-SS =       22962.7514     STORAGE                          
              STO-SY =      713246.1890                STO-SY =         901.5318     STORAGE                          
                 WEL =           0.0000                   WEL =           0.0000     WEL-1                            
                RCHA =    67598747.3601                  RCHA =       42750.0000     RCH-1                            
                 CHD =           0.0000                   CHD =           0.0000     CHD-FROM-IBOUND                  

            TOTAL IN =    87162422.8110              TOTAL IN =       66614.2832

          OUT:                                     OUT:
          ----                                     ----
              STO-SS =    45065158.4270                STO-SS =           0.0000     STORAGE                          
              STO-SY =     1649632.5699                STO-SY =           0.0000     STORAGE                          
                 WEL =     7053144.9638                   WEL =       20000.0000     WEL-1                            
                RCHA =           0.0000                  RCHA =           0.0000     RCH-1                            
                 CHD =    33394493.1594                   CHD =       46614.2832     CHD-FROM-IBOUND                  

           TOTAL OUT =    87162429.1201             TOTAL OUT =       66614.2832

            IN - OUT =          -6.3091              IN - OUT =      -3.4615E-05

 PERCENT DISCREPANCY =          -0.00     PERCENT DISCREPANCY =          -0.00




         TIME SUMMARY AT END OF TIME STEP    6 IN STRESS PERIOD   25
                    SECONDS     MINUTES      HOURS       DAYS        YEARS
                    -----------------------------------------------------------
   TIME STEP LENGTH 4.03945E+05  6732.4      112.21      4.6753     1.28002E-02
 STRESS PERIOD TIME 1.61199E+06  26866.      447.77      18.657     5.10808E-02
         TOTAL TIME 6.20920E+07 1.03487E+06  17248.      718.66      1.9676    


end timestep


start timestep kper="25" kstp="7" mode="normal"

 UBDSV1 SAVING     FLOW-JA-FACE ON UNIT   1015 AT TIME STEP      7, STRESS PERIOD     25
 UBDSV06 SAVING              WEL IN MODEL MUMODEL          PACKAGE MUMODEL         CONNECTED TO MODEL MUMODEL          PACKAGE WEL-1            ON UNIT   1015 AT TIME STEP      7, STRESS PERIOD     25
 UBDSV06 SAVING             RCHA IN MODEL MUMODEL          PACKAGE MUMODEL         CONNECTED TO MODEL MUMODEL          PACKAGE RCH-1            ON UNIT   1015 AT TIME STEP      7, STRESS PERIOD     25

 WEL PACKAGE (WEL-1) FLOW RATES   PERIOD     25   STEP        7
 -----------------------------------------------
   NUMBER   CELLID                    RATE      
 -----------------------------------------------
     1      (1,5,5)              -20000.000     
     2      (1,11,5)              0.0000000     
     3      (1,5,5)               0.0000000     
 -----------------------------------------------




 CHD PACKAGE (CHD-FROM-IBOUND) FLOW RATES   PERIOD     25   STEP        7
 -----------------------------------------------
   NUMBER   CELLID                    RATE      
 -----------------------------------------------
     1      (1,1,1)              -2592.2662     
     2      (1,1,2)              -2591.6777     
     3      (1,1,3)              -2588.6527     
     4      (1,1,4)              -2578.1570     
     5      (1,1,5)              -2560.8137     
     6      (1,1,6)              -2578.1553     
     7      (1,1,7)              -2588.6496     
     8      (1,1,8)              -2591.6736     
     9      (1,1,9)              -2592.2617     
     10     (1,21,1)             -2592.3821     
     11     (1,21,2)             -2592.3830     
     12     (1,21,3)             -2592.3842     
     13     (1,21,4)             -2592.3853     
     14     (1,21,5)             -2592.3862     
     15     (1,21,6)             -2592.3869     
     16     (1,21,7)             -2592.3868     
     17     (1,21,8)             -2592.3860     
     18     (1,21,9)             -2592.3850     
 -----------------------------------------------




 HEAD WILL BE SAVED ON UNIT 1016 AT END OF TIME STEP    7, STRESS PERIOD   25


  VOLUME BUDGET FOR ENTIRE MODEL AT END OF TIME STEP    7, STRESS PERIOD  25
  ---------------------------------------------------------------------------------------------------

     CUMULATIVE VOLUME      L**3       RATES FOR THIS TIME STEP      L**3/T          PACKAGE NAME    
     ------------------                 ------------------------                     ----------------

           IN:                                      IN:
           ---                                      ---
              STO-SS =    18979148.2392                STO-SS =       22943.1616     STORAGE                          
              STO-SY =      718298.9267                STO-SY =         900.6114     STORAGE                          
                 WEL =           0.0000                   WEL =           0.0000     WEL-1                            
                RCHA =    67838589.4691                  RCHA =       42750.0000     RCH-1                            
                 CHD =           0.0000                   CHD =           0.0000     CHD-FROM-IBOUND                  

            TOTAL IN =    87536036.6350              TOTAL IN =       66593.7730

          OUT:                                     OUT:
          ----                                     ----
              STO-SS =    45065158.4270                STO-SS =           0.0000     STORAGE                          
              STO-SY =     1649632.5699                STO-SY =           0.0000     STORAGE                          
                 WEL =     7165351.7984                   WEL =       20000.0000     WEL-1                            
                RCHA =           0.0000                  RCHA =           0.0000     RCH-1                            
                 CHD =    33655900.1491                   CHD =       46593.7731     CHD-FROM-IBOUND                  

           TOTAL OUT =    87536042.9444             TOTAL OUT =       66593.7731

            IN - OUT =          -6.3094              IN - OUT =      -5.8288E-05

 PERCENT DISCREPANCY =          -0.00     PERCENT DISCREPANCY =          -0.00




         TIME SUMMARY AT END OF TIME STEP    7 IN STRESS PERIOD   25
                    SECONDS     MINUTES      HOURS       DAYS        YEARS
                    -----------------------------------------------------------
   TIME STEP LENGTH 4.84734E+05  8078.9      134.65      5.6103     1.53603E-02
 STRESS PERIOD TIME 2.09672E+06  34945.      582.42      24.268     6.64410E-02
         TOTAL TIME 6.25767E+07 1.04295E+06  17382.      724.27      1.9829    


end timestep


start timestep kper="25" kstp="8" mode="normal"

 UBDSV1 SAVING     FLOW-JA-FACE ON UNIT   1015 AT TIME STEP      8, STRESS PERIOD     25
 UBDSV06 SAVING              WEL IN MODEL MUMODEL          PACKAGE MUMODEL         CONNECTED TO MODEL MUMODEL          PACKAGE WEL-1            ON UNIT   1015 AT TIME STEP      8, STRESS PERIOD     25
 UBDSV06 SAVING             RCHA IN MODEL MUMODEL          PACKAGE MUMODEL         CONNECTED TO MODEL MUMODEL          PACKAGE RCH-1            ON UNIT   1015 AT TIME STEP      8, STRESS PERIOD     25

 WEL PACKAGE (WEL-1) FLOW RATES   PERIOD     25   STEP        8
 -----------------------------------------------
   NUMBER   CELLID                    RATE      
 -----------------------------------------------
     1      (1,5,5)              -20000.000     
     2      (1,11,5)              0.0000000     
     3      (1,5,5)               0.0000000     
 -----------------------------------------------




 CHD PACKAGE (CHD-FROM-IBOUND) FLOW RATES   PERIOD     25   STEP        8
 -----------------------------------------------
   NUMBER   CELLID                    RATE      
 -----------------------------------------------
     1      (1,1,1)              -2591.1163     
     2      (1,1,2)              -2590.4746     
     3      (1,1,3)              -2587.2286     
     4      (1,1,4)              -2576.1499     
     5      (1,1,5)              -2558.1596     
     6      (1,1,6)              -2576.1483     
     7      (1,1,7)              -2587.2255     
     8      (1,1,8)              -2590.4705     
     9      (1,1,9)              -2591.1117     
     10     (1,21,1)             -2591.2458     
     11     (1,21,2)             -2591.2466     
     12     (1,21,3)             -2591.2478     
     13     (1,21,4)             -2591.2489     
     14     (1,21,5)             -2591.2499     
     15     (1,21,6)             -2591.2504     
     16     (1,21,7)             -2591.2504     
     17     (1,21,8)             -2591.2496     
     18     (1,21,9)             -2591.2486     
 -----------------------------------------------




 HEAD WILL BE SAVED ON UNIT 1016 AT END OF TIME STEP    8, STRESS PERIOD   25


  VOLUME BUDGET FOR ENTIRE MODEL AT END OF TIME STEP    8, STRESS PERIOD  25
  ---------------------------------------------------------------------------------------------------

     CUMULATIVE VOLUME      L**3       RATES FOR THIS TIME STEP      L**3/T          PACKAGE NAME    
     ------------------                 ------------------------                     ----------------

           IN:                                      IN:
           ---                                      ---
              STO-SS =    19133453.7615                STO-SS =       22919.8044     STORAGE                          
              STO-SY =      724354.8531                STO-SY =         899.5183     STORAGE                          
                 WEL =           0.0000                   WEL =           0.0000     WEL-1                            
                RCHA =    68126400.0000                  RCHA =       42750.0000     RCH-1                            
                 CHD =           0.0000                   CHD =           0.0000     CHD-FROM-IBOUND                  

            TOTAL IN =    87984208.6146              TOTAL IN =       66569.3228

          OUT:                                     OUT:
          ----                                     ----
              STO-SS =    45065158.4270                STO-SS =           0.0000     STORAGE                          
              STO-SY =     1649632.5699                STO-SY =           0.0000     STORAGE                          
                 WEL =     7300000.0000                   WEL =       20000.0000     WEL-1                            
                RCHA =           0.0000                  RCHA =           0.0000     RCH-1                            
                 CHD =    33969423.9277                   CHD =       46569.3229     CHD-FROM-IBOUND                  

           TOTAL OUT =    87984214.9247             TOTAL OUT =       66569.3229

            IN - OUT =          -6.3100              IN - OUT =      -9.5233E-05

 PERCENT DISCREPANCY =          -0.00     PERCENT DISCREPANCY =          -0.00




         TIME SUMMARY AT END OF TIME STEP    8 IN STRESS PERIOD   25
                    SECONDS     MINUTES      HOURS       DAYS        YEARS
                    -----------------------------------------------------------
   TIME STEP LENGTH 5.81680E+05  9694.7      161.58      6.7324     1.84323E-02
 STRESS PERIOD TIME 2.67840E+06  44640.      744.00      31.000     8.48734E-02
         TOTAL TIME 6.31584E+07 1.05264E+06  17544.      731.00      2.0014    


end timestep

