                                   MODFLOW 6
                U.S. GEOLOGICAL SURVEY MODULAR HYDROLOGIC MODEL
                          GROUNDWATER FLOW MODEL (GWF)
                            VERSION 6.4.2 06/28/2023

   MODFLOW 6 compiled Jul 05 2023 20:31:54 with Intel(R) Fortran Intel(R) 64
   Compiler Classic for applications running on Intel(R) 64, Version 2021.7.0
                             Build 20220726_000000

This software has been approved for release by the U.S. Geological 
Survey (USGS). Although the software has been subjected to rigorous 
review, the USGS reserves the right to update the software as needed 
pursuant to further analysis and review. No warranty, expressed or 
implied, is made by the USGS or the U.S. Government as to the 
functionality of the software and related material nor shall the 
fact of release constitute any such warranty. Furthermore, the 
software is released on condition that neither the USGS nor the U.S. 
Government shall be held liable for any damages resulting from its 
authorized or unauthorized use. Also refer to the USGS Water 
Resources Software User Rights Notice for complete use, copyright, 
and distribution information.


As a work of the United States Government, this USGS product is 
in the public domain within the United States. You can copy, 
modify, distribute, and perform the work, even for commercial 
purposes, all without asking permission. Additionally, USGS 
waives copyright and related rights in the work worldwide 
through CC0 1.0 Universal Public Domain Dedication 
(https://creativecommons.org/publicdomain/zero/1.0/).

The following GNU Lesser General Public License (LGPL) libraries
are used in this USGS product:

    SPARSKIT version 2.0
      ilut, luson, and qsplit 
      (https://www-users.cse.umn.edu/~saad/software/SPARSKIT/)

    RCM - Reverse Cuthill McKee Ordering
      (https://people.math.sc.edu/Burkardt/f_src/rcm/rcm.html)

    BLAS - Basic Linear Algebra Subprograms Level 1
      (https://people.math.sc.edu/Burkardt/f_src/blas1_d/blas1_d.html)

    SPARSEKIT - Sparse Matrix Utility Package
      amux, dperm, dvperm, rperm, and cperm
      (https://people.sc.fsu.edu/~jburkardt/f77_src/sparsekit/sparsekit.html)

The following BSD-3 License libraries are used in this USGS product:

    Modern Fortran DAG Library
      Copyright (c) 2018, Jacob Williams
      All rights reserved.
      (https://github.com/jacobwilliams/daglib)

MODFLOW 6 compiler options: /O2 /heap-arrays:0 /fpe:0 /traceback /nologo /fpp
/c /module:win64\mod_mf6\ /object:win64\obj_mf6\

System command used to initiate simulation:
C:\A\envs\pyclass\Scripts\mf6.exe

MODFLOW was compiled using uniform precision.

Real Variables
  KIND: 8
  TINY (smallest non-zero value):    2.225074-308
  HUGE (largest value):    1.797693+308
  PRECISION: 15
  SIZE IN BITS: 64

Integer Variables
  KIND: 4
  HUGE (largest value): 2147483647
  SIZE IN BITS: 32

Long Integer Variables
  KIND: 8
  HUGE (largest value): 9223372036854775807
  SIZE IN BITS: 64

Logical Variables
  KIND: 4
  SIZE IN BITS: 32
 
 NAMEFILE OPTIONS:
 END NAMEFILE OPTIONS:

 DIS -- STRUCTURED GRID DISCRETIZATION PACKAGE, VERSION 2 : 3/27/2014 - INPUT READ FROM MEMPATH: __INPUT__/MUMODEL/DIS                             


 NPF -- NODE PROPERTY FLOW PACKAGE, VERSION 1, 3/30/2015 INPUT READ FROM MEMPATH: __INPUT__/MUMODEL/NPF                             

 Setting Discretization Options
    Model length unit [0=UND, 1=FEET, 2=METERS, 3=CENTIMETERS] set as 0
 End Setting Discretization Options

 Setting Discretization Dimensions
    NLAY = 1
    NROW = 21
    NCOL = 9
 End Setting Discretization Dimensions

 Setting Discretization Griddata
    DELR set from input file
    DELC set from input file
    TOP set from input file
    BOTM set from input file
 End Setting Discretization Griddata

 Setting NPF Options
    Cell-by-cell flow information will be saved to binary file whenever ICBCFL is not zero.
    Vertical flow will be adjusted for perched conditions.
    Vertical conductance varies with water table.
    Vertical conductance accounts for dewatered portion of an underlying cell.
 End Setting NPF Options

 Setting NPF Griddata
    ICELLTYPE set from input file
    K set from input file
    K33 not provided.  Setting K33 = K.
    K22 not provided.  Setting K22 = K.
 End Setting NPF Griddata


 WEL   -- WEL PACKAGE, VERSION 8, 2/22/2014 INPUT READ FROM UNIT 1008
 # WEL6 input file, prepared by MF5to6 on 1/30/2024 at 15:47:34.

 PROCESSING WEL OPTIONS
    AUXILIARY WEL VARIABLE: IFACE           
    LISTS OF WEL CELLS WILL BE PRINTED.
    WEL FLOWS WILL BE PRINTED TO LISTING FILE.
    FLOWS WILL BE SAVED TO BUDGET FILE SPECIFIED IN OUTPUT CONTROL
 END OF WEL OPTIONS

 PROCESSING WEL DIMENSIONS
    MAXBOUND =       3
 END OF WEL DIMENSIONS

 RCH   -- RCH PACKAGE, VERSION 8, 2/22/2014 INPUT READ FROM UNIT 1009
 # File generated by Flopy version 3.5.0 on 02/21/2024 at 16:43:13.

 PROCESSING RCH OPTIONS
    RECHARGE INPUT WILL BE READ AS ARRAY(S).
    FLOWS WILL BE SAVED TO BUDGET FILE SPECIFIED IN OUTPUT CONTROL
 END OF RCHA OPTIONS

 CHD   -- CHD PACKAGE, VERSION 8, 2/22/2014 INPUT READ FROM UNIT 1010
 # CHD6 input file, prepared by MF5to6 on 1/30/2024 at 15:47:34.

 PROCESSING CHD OPTIONS
    LISTS OF CHD CELLS WILL BE PRINTED.
    CHD FLOWS WILL BE PRINTED TO LISTING FILE.
 END OF CHD OPTIONS

 PROCESSING CHD DIMENSIONS
    MAXBOUND =      18
 END OF CHD DIMENSIONS

 IC -- INITIAL CONDITIONS PACKAGE, VERSION 8, 3/28/2015 INPUT READ FROM UNIT 1006
 # IC6 input file, prepared by MF5to6 on 1/30/2024 at 15:47:34.
 PROCESSING IC OPTIONS
 END OF IC OPTIONS
 PROCESSING GRIDDATA

     INITIAL HEAD FOR LAYER 1

               1          2          3          4          5          6          7          8          9
 .......................................................................................................
   1   1.000E+03  1.000E+03  1.000E+03  1.000E+03  1.000E+03  1.000E+03  1.000E+03  1.000E+03  1.000E+03
   2   1.100E+03  1.100E+03  1.100E+03  1.100E+03  1.100E+03  1.100E+03  1.100E+03  1.100E+03  1.100E+03
   3   1.100E+03  1.100E+03  1.100E+03  1.100E+03  1.100E+03  1.100E+03  1.100E+03  1.100E+03  1.100E+03
   4   1.100E+03  1.100E+03  1.100E+03  1.100E+03  1.100E+03  1.100E+03  1.100E+03  1.100E+03  1.100E+03
   5   1.100E+03  1.100E+03  1.100E+03  1.100E+03  1.100E+03  1.100E+03  1.100E+03  1.100E+03  1.100E+03
   6   1.100E+03  1.100E+03  1.100E+03  1.100E+03  1.100E+03  1.100E+03  1.100E+03  1.100E+03  1.100E+03
   7   1.100E+03  1.100E+03  1.100E+03  1.100E+03  1.100E+03  1.100E+03  1.100E+03  1.100E+03  1.100E+03
   8   1.100E+03  1.100E+03  1.100E+03  1.100E+03  1.100E+03  1.100E+03  1.100E+03  1.100E+03  1.100E+03
   9   1.100E+03  1.100E+03  1.100E+03  1.100E+03  1.100E+03  1.100E+03  1.100E+03  1.100E+03  1.100E+03
  10   1.100E+03  1.100E+03  1.100E+03  1.100E+03  1.100E+03  1.100E+03  1.100E+03  1.100E+03  1.100E+03
  11   1.100E+03  1.100E+03  1.100E+03  1.100E+03  1.100E+03  1.100E+03  1.100E+03  1.100E+03  1.100E+03
  12   1.100E+03  1.100E+03  1.100E+03  1.100E+03  1.100E+03  1.100E+03  1.100E+03  1.100E+03  1.100E+03
  13   1.100E+03  1.100E+03  1.100E+03  1.100E+03  1.100E+03  1.100E+03  1.100E+03  1.100E+03  1.100E+03
  14   1.100E+03  1.100E+03  1.100E+03  1.100E+03  1.100E+03  1.100E+03  1.100E+03  1.100E+03  1.100E+03
  15   1.100E+03  1.100E+03  1.100E+03  1.100E+03  1.100E+03  1.100E+03  1.100E+03  1.100E+03  1.100E+03
  16   1.100E+03  1.100E+03  1.100E+03  1.100E+03  1.100E+03  1.100E+03  1.100E+03  1.100E+03  1.100E+03
  17   1.100E+03  1.100E+03  1.100E+03  1.100E+03  1.100E+03  1.100E+03  1.100E+03  1.100E+03  1.100E+03
  18   1.100E+03  1.100E+03  1.100E+03  1.100E+03  1.100E+03  1.100E+03  1.100E+03  1.100E+03  1.100E+03
  19   1.100E+03  1.100E+03  1.100E+03  1.100E+03  1.100E+03  1.100E+03  1.100E+03  1.100E+03  1.100E+03
  20   1.100E+03  1.100E+03  1.100E+03  1.100E+03  1.100E+03  1.100E+03  1.100E+03  1.100E+03  1.100E+03
  21   1.000E+03  1.000E+03  1.000E+03  1.000E+03  1.000E+03  1.000E+03  1.000E+03  1.000E+03  1.000E+03
 END PROCESSING GRIDDATA

 STO -- STORAGE PACKAGE, VERSION 1, 5/19/2014 INPUT READ FROM UNIT 1005


 # STO6 input file, prepared by MF5to6 on 1/30/2024 at 15:47:34.
 PROCESSING STORAGE OPTIONS
 END OF STORAGE OPTIONS
 PROCESSING GRIDDATA

                 ICONVERT = 1 FOR LAYER 1

         SPECIFIC STORAGE =  0.1000000     FOR LAYER 1

           SPECIFIC YIELD =  0.1000000     FOR LAYER 1
 END PROCESSING GRIDDATA
    BINARY GRID INFORMATION WILL BE WRITTEN TO:
      UNIT NUMBER: 1014
      FILE NAME: mumodel.dis.grb

 OPENED mumodel.dis.grb
 FILE TYPE:DATA(BINARY)   UNIT 1014   STATUS:REPLACE             
 FORMAT:UNFORMATTED            ACCESS:STREAM              
 ACTION:READWRITE           

      THE LAST TIME STEP WILL BE PRINTED
      THE LAST TIME STEP WILL BE PRINTED
 # OC6 input file, prepared by MF5to6 on 1/30/2024 at 15:47:34.

 PROCESSING OC OPTIONS

    BUDGET INFORMATION WILL BE WRITTEN TO:
      UNIT NUMBER: 1015
      FILE NAME: mumodel_7-2b.cbb

 OPENED mumodel_7-2b.cbb
 FILE TYPE:DATA(BINARY)   UNIT 1015   STATUS:REPLACE             
 FORMAT:UNFORMATTED            ACCESS:STREAM              
 ACTION:READWRITE           

    HEAD INFORMATION WILL BE WRITTEN TO:
      UNIT NUMBER: 1016
      FILE NAME: mumodel_7-2b.hds

 OPENED mumodel_7-2b.hds
 FILE TYPE:DATA(BINARY)   UNIT 1016   STATUS:REPLACE             
 FORMAT:UNFORMATTED            ACCESS:STREAM              
 ACTION:READWRITE           

 END OF OC OPTIONS

start timestep kper="1" kstp="1" mode="normal"


 BEGIN READING OUTPUT CONTROL FOR STRESS PERIOD 1
      ALL TIME STEPS WILL BE SAVED
      ALL TIME STEPS WILL BE PRINTED
      ALL TIME STEPS WILL BE SAVED

 END READING OUTPUT CONTROL FOR STRESS PERIOD 1


 PROCESSING STORAGE PERIOD DATA
 END PROCESSING STORAGE PERIOD DATA


 STRESS PERIOD 1 IS STEADY-STATE

 --------------------------------------------------------------------
  WEL NO.    LAYER    ROW     COL     STRESS RATE         IFACE      
 --------------------------------------------------------------------
     1         1       5       5     0.00000000       0.00000000     
     2         1      11       5     0.00000000       0.00000000     
     3         1       5       5     0.00000000       0.00000000     
 --------------------------------------------------------------------


 ---------------------------------------------------
  CHD NO.    LAYER    ROW     COL         HEAD      
 ---------------------------------------------------
     1         1       1       1     1000.00000     
     2         1       1       2     1000.00000     
     3         1       1       3     1000.00000     
     4         1       1       4     1000.00000     
     5         1       1       5     1000.00000     
     6         1       1       6     1000.00000     
     7         1       1       7     1000.00000     
     8         1       1       8     1000.00000     
     9         1       1       9     1000.00000     
     10        1      21       1     1000.00000     
     11        1      21       2     1000.00000     
     12        1      21       3     1000.00000     
     13        1      21       4     1000.00000     
     14        1      21       5     1000.00000     
     15        1      21       6     1000.00000     
     16        1      21       7     1000.00000     
     17        1      21       8     1000.00000     
     18        1      21       9     1000.00000     
 ---------------------------------------------------


 UBDSV1 SAVING     FLOW-JA-FACE ON UNIT   1015 AT TIME STEP      1, STRESS PERIOD      1
 UBDSV06 SAVING              WEL IN MODEL MUMODEL          PACKAGE MUMODEL         CONNECTED TO MODEL MUMODEL          PACKAGE WEL-1            ON UNIT   1015 AT TIME STEP      1, STRESS PERIOD      1
 UBDSV06 SAVING             RCHA IN MODEL MUMODEL          PACKAGE MUMODEL         CONNECTED TO MODEL MUMODEL          PACKAGE RCH-1            ON UNIT   1015 AT TIME STEP      1, STRESS PERIOD      1

 WEL PACKAGE (WEL-1) FLOW RATES   PERIOD      1   STEP        1
 -----------------------------------------------
   NUMBER   CELLID                    RATE      
 -----------------------------------------------
     1      (1,5,5)               0.0000000     
     2      (1,11,5)              0.0000000     
     3      (1,5,5)               0.0000000     
 -----------------------------------------------




 CHD PACKAGE (CHD-FROM-IBOUND) FLOW RATES   PERIOD      1   STEP        1
 -----------------------------------------------
   NUMBER   CELLID                    RATE      
 -----------------------------------------------
     1      (1,1,1)              -4749.9996     
     2      (1,1,2)              -4749.9935     
     3      (1,1,3)              -4749.9952     
     4      (1,1,4)              -4749.9979     
     5      (1,1,5)              -4750.0001     
     6      (1,1,6)              -4750.0019     
     7      (1,1,7)              -4750.0041     
     8      (1,1,8)              -4750.0071     
     9      (1,1,9)              -4750.0103     
     10     (1,21,1)             -4750.0120     
     11     (1,21,2)             -4750.0061     
     12     (1,21,3)             -4750.0017     
     13     (1,21,4)             -4749.9992     
     14     (1,21,5)             -4749.9970     
     15     (1,21,6)             -4749.9940     
     16     (1,21,7)             -4749.9904     
     17     (1,21,8)             -4749.9895     
     18     (1,21,9)             -4750.0015     
 -----------------------------------------------




 HEAD WILL BE SAVED ON UNIT 1016 AT END OF TIME STEP    1, STRESS PERIOD    1


  VOLUME BUDGET FOR ENTIRE MODEL AT END OF TIME STEP    1, STRESS PERIOD   1
  ---------------------------------------------------------------------------------------------------

     CUMULATIVE VOLUME      L**3       RATES FOR THIS TIME STEP      L**3/T          PACKAGE NAME    
     ------------------                 ------------------------                     ----------------

           IN:                                      IN:
           ---                                      ---
              STO-SS =           0.0000                STO-SS =           0.0000     STORAGE                          
              STO-SY =           0.0000                STO-SY =           0.0000     STORAGE                          
                 WEL =           0.0000                   WEL =           0.0000     WEL-1                            
                RCHA =       85500.0000                  RCHA =       85500.0000     RCH-1                            
                 CHD =           0.0000                   CHD =           0.0000     CHD-FROM-IBOUND                  

            TOTAL IN =       85500.0000              TOTAL IN =       85500.0000

          OUT:                                     OUT:
          ----                                     ----
              STO-SS =           0.0000                STO-SS =           0.0000     STORAGE                          
              STO-SY =           0.0000                STO-SY =           0.0000     STORAGE                          
                 WEL =           0.0000                   WEL =           0.0000     WEL-1                            
                RCHA =           0.0000                  RCHA =           0.0000     RCH-1                            
                 CHD =       85500.0011                   CHD =       85500.0011     CHD-FROM-IBOUND                  

           TOTAL OUT =       85500.0011             TOTAL OUT =       85500.0011

            IN - OUT =      -1.1274E-03              IN - OUT =      -1.1274E-03

 PERCENT DISCREPANCY =          -0.00     PERCENT DISCREPANCY =          -0.00




         TIME SUMMARY AT END OF TIME STEP    1 IN STRESS PERIOD    1
                    SECONDS     MINUTES      HOURS       DAYS        YEARS
                    -----------------------------------------------------------
   TIME STEP LENGTH  86400.      1440.0      24.000      1.0000     2.73785E-03
 STRESS PERIOD TIME  86400.      1440.0      24.000      1.0000     2.73785E-03
         TOTAL TIME  86400.      1440.0      24.000      1.0000     2.73785E-03


end timestep


start timestep kper="2" kstp="1" mode="normal"


 END OF FILE DETECTED IN OUTPUT CONTROL.
 CURRENT OUTPUT CONTROL SETTINGS WILL BE 
 REPEATED UNTIL THE END OF THE SIMULATION.

 OUTPUT CONTROL FOR STRESS PERIOD 2 IS REPEATED USING SETTINGS FROM A PREVIOUS STRESS PERIOD.


 PROCESSING STORAGE PERIOD DATA
 END PROCESSING STORAGE PERIOD DATA


 STRESS PERIOD 2 IS TRANSIENT


 REUSING WELS FROM LAST STRESS PERIOD

 REUSING CHDS FROM LAST STRESS PERIOD
 UBDSV1 SAVING     FLOW-JA-FACE ON UNIT   1015 AT TIME STEP      1, STRESS PERIOD      2
 UBDSV06 SAVING              WEL IN MODEL MUMODEL          PACKAGE MUMODEL         CONNECTED TO MODEL MUMODEL          PACKAGE WEL-1            ON UNIT   1015 AT TIME STEP      1, STRESS PERIOD      2
 UBDSV06 SAVING             RCHA IN MODEL MUMODEL          PACKAGE MUMODEL         CONNECTED TO MODEL MUMODEL          PACKAGE RCH-1            ON UNIT   1015 AT TIME STEP      1, STRESS PERIOD      2

 WEL PACKAGE (WEL-1) FLOW RATES   PERIOD      2   STEP        1
 -----------------------------------------------
   NUMBER   CELLID                    RATE      
 -----------------------------------------------
     1      (1,5,5)               0.0000000     
     2      (1,11,5)              0.0000000     
     3      (1,5,5)               0.0000000     
 -----------------------------------------------




 CHD PACKAGE (CHD-FROM-IBOUND) FLOW RATES   PERIOD      2   STEP        1
 -----------------------------------------------
   NUMBER   CELLID                    RATE      
 -----------------------------------------------
     1      (1,1,1)              -4751.7533     
     2      (1,1,2)              -4751.7470     
     3      (1,1,3)              -4751.7485     
     4      (1,1,4)              -4751.7511     
     5      (1,1,5)              -4751.7532     
     6      (1,1,6)              -4751.7550     
     7      (1,1,7)              -4751.7571     
     8      (1,1,8)              -4751.7600     
     9      (1,1,9)              -4751.7631     
     10     (1,21,1)             -4751.7647     
     11     (1,21,2)             -4751.7590     
     12     (1,21,3)             -4751.7548     
     13     (1,21,4)             -4751.7523     
     14     (1,21,5)             -4751.7500     
     15     (1,21,6)             -4751.7469     
     16     (1,21,7)             -4751.7434     
     17     (1,21,8)             -4751.7427     
     18     (1,21,9)             -4751.7547     
 -----------------------------------------------




 HEAD WILL BE SAVED ON UNIT 1016 AT END OF TIME STEP    1, STRESS PERIOD    2


  VOLUME BUDGET FOR ENTIRE MODEL AT END OF TIME STEP    1, STRESS PERIOD   2
  ---------------------------------------------------------------------------------------------------

     CUMULATIVE VOLUME      L**3       RATES FOR THIS TIME STEP      L**3/T          PACKAGE NAME    
     ------------------                 ------------------------                     ----------------

           IN:                                      IN:
           ---                                      ---
              STO-SS =           0.0000                STO-SS =           0.0000     STORAGE                          
              STO-SY =           0.0000                STO-SY =           0.0000     STORAGE                          
                 WEL =           0.0000                   WEL =           0.0000     WEL-1                            
                RCHA =      406790.5482                  RCHA =      171000.0000     RCH-1                            
                 CHD =           0.0000                   CHD =           0.0000     CHD-FROM-IBOUND                  

            TOTAL IN =      406790.5482              TOTAL IN =      171000.0000

          OUT:                                     OUT:
          ----                                     ----
              STO-SS =      155768.8214                STO-SS =       82904.6127     STORAGE                          
              STO-SY =        4817.1610                STO-SY =        2563.8306     STORAGE                          
                 WEL =           0.0000                   WEL =           0.0000     WEL-1                            
                RCHA =           0.0000                  RCHA =           0.0000     RCH-1                            
                 CHD =      246204.5671                   CHD =       85531.5568     CHD-FROM-IBOUND                  

           TOTAL OUT =      406790.5494             TOTAL OUT =      171000.0001

            IN - OUT =      -1.2399E-03              IN - OUT =      -5.9834E-05

 PERCENT DISCREPANCY =          -0.00     PERCENT DISCREPANCY =          -0.00




         TIME SUMMARY AT END OF TIME STEP    1 IN STRESS PERIOD    2
                    SECONDS     MINUTES      HOURS       DAYS        YEARS
                    -----------------------------------------------------------
   TIME STEP LENGTH 1.62336E+05  2705.6      45.093      1.8789     5.14413E-03
 STRESS PERIOD TIME 1.62336E+05  2705.6      45.093      1.8789     5.14413E-03
         TOTAL TIME 2.48736E+05  4145.6      69.093      2.8789     7.88198E-03


end timestep


start timestep kper="2" kstp="2" mode="normal"

 UBDSV1 SAVING     FLOW-JA-FACE ON UNIT   1015 AT TIME STEP      2, STRESS PERIOD      2
 UBDSV06 SAVING              WEL IN MODEL MUMODEL          PACKAGE MUMODEL         CONNECTED TO MODEL MUMODEL          PACKAGE WEL-1            ON UNIT   1015 AT TIME STEP      2, STRESS PERIOD      2
 UBDSV06 SAVING             RCHA IN MODEL MUMODEL          PACKAGE MUMODEL         CONNECTED TO MODEL MUMODEL          PACKAGE RCH-1            ON UNIT   1015 AT TIME STEP      2, STRESS PERIOD      2

 WEL PACKAGE (WEL-1) FLOW RATES   PERIOD      2   STEP        2
 -----------------------------------------------
   NUMBER   CELLID                    RATE      
 -----------------------------------------------
     1      (1,5,5)               0.0000000     
     2      (1,11,5)              0.0000000     
     3      (1,5,5)               0.0000000     
 -----------------------------------------------




 CHD PACKAGE (CHD-FROM-IBOUND) FLOW RATES   PERIOD      2   STEP        2
 -----------------------------------------------
   NUMBER   CELLID                    RATE      
 -----------------------------------------------
     1      (1,1,1)              -4753.8483     
     2      (1,1,2)              -4753.8421     
     3      (1,1,3)              -4753.8435     
     4      (1,1,4)              -4753.8461     
     5      (1,1,5)              -4753.8482     
     6      (1,1,6)              -4753.8499     
     7      (1,1,7)              -4753.8520     
     8      (1,1,8)              -4753.8550     
     9      (1,1,9)              -4753.8581     
     10     (1,21,1)             -4753.8596     
     11     (1,21,2)             -4753.8540     
     12     (1,21,3)             -4753.8498     
     13     (1,21,4)             -4753.8473     
     14     (1,21,5)             -4753.8450     
     15     (1,21,6)             -4753.8419     
     16     (1,21,7)             -4753.8384     
     17     (1,21,8)             -4753.8378     
     18     (1,21,9)             -4753.8497     
 -----------------------------------------------




 HEAD WILL BE SAVED ON UNIT 1016 AT END OF TIME STEP    2, STRESS PERIOD    2


  VOLUME BUDGET FOR ENTIRE MODEL AT END OF TIME STEP    2, STRESS PERIOD   2
  ---------------------------------------------------------------------------------------------------

     CUMULATIVE VOLUME      L**3       RATES FOR THIS TIME STEP      L**3/T          PACKAGE NAME    
     ------------------                 ------------------------                     ----------------

           IN:                                      IN:
           ---                                      ---
              STO-SS =           0.0000                STO-SS =           0.0000     STORAGE                          
              STO-SY =           0.0000                STO-SY =           0.0000     STORAGE                          
                 WEL =           0.0000                   WEL =           0.0000     WEL-1                            
                RCHA =      792339.2060                  RCHA =      171000.0000     RCH-1                            
                 CHD =           0.0000                   CHD =           0.0000     CHD-FROM-IBOUND                  

            TOTAL IN =      792339.2060              TOTAL IN =      171000.0000

          OUT:                                     OUT:
          ----                                     ----
              STO-SS =      342609.9617                STO-SS =       82868.4897     STORAGE                          
              STO-SY =       10594.1765                STO-SY =        2562.2438     STORAGE                          
                 WEL =           0.0000                   WEL =           0.0000     WEL-1                            
                RCHA =           0.0000                  RCHA =           0.0000     RCH-1                            
                 CHD =      439135.0693                   CHD =       85569.2666     CHD-FROM-IBOUND                  

           TOTAL OUT =      792339.2075             TOTAL OUT =      171000.0001

            IN - OUT =      -1.4881E-03              IN - OUT =      -1.1010E-04

 PERCENT DISCREPANCY =          -0.00     PERCENT DISCREPANCY =          -0.00




         TIME SUMMARY AT END OF TIME STEP    2 IN STRESS PERIOD    2
                    SECONDS     MINUTES      HOURS       DAYS        YEARS
                    -----------------------------------------------------------
   TIME STEP LENGTH 1.94804E+05  3246.7      54.112      2.2547     6.17295E-03
 STRESS PERIOD TIME 3.57140E+05  5952.3      99.206      4.1336     1.13171E-02
         TOTAL TIME 4.43540E+05  7392.3      123.21      5.1336     1.40549E-02


end timestep


start timestep kper="2" kstp="3" mode="normal"

 UBDSV1 SAVING     FLOW-JA-FACE ON UNIT   1015 AT TIME STEP      3, STRESS PERIOD      2
 UBDSV06 SAVING              WEL IN MODEL MUMODEL          PACKAGE MUMODEL         CONNECTED TO MODEL MUMODEL          PACKAGE WEL-1            ON UNIT   1015 AT TIME STEP      3, STRESS PERIOD      2
 UBDSV06 SAVING             RCHA IN MODEL MUMODEL          PACKAGE MUMODEL         CONNECTED TO MODEL MUMODEL          PACKAGE RCH-1            ON UNIT   1015 AT TIME STEP      3, STRESS PERIOD      2

 WEL PACKAGE (WEL-1) FLOW RATES   PERIOD      2   STEP        3
 -----------------------------------------------
   NUMBER   CELLID                    RATE      
 -----------------------------------------------
     1      (1,5,5)               0.0000000     
     2      (1,11,5)              0.0000000     
     3      (1,5,5)               0.0000000     
 -----------------------------------------------




 CHD PACKAGE (CHD-FROM-IBOUND) FLOW RATES   PERIOD      2   STEP        3
 -----------------------------------------------
   NUMBER   CELLID                    RATE      
 -----------------------------------------------
     1      (1,1,1)              -4756.3498     
     2      (1,1,2)              -4756.3437     
     3      (1,1,3)              -4756.3451     
     4      (1,1,4)              -4756.3476     
     5      (1,1,5)              -4756.3497     
     6      (1,1,6)              -4756.3514     
     7      (1,1,7)              -4756.3535     
     8      (1,1,8)              -4756.3564     
     9      (1,1,9)              -4756.3595     
     10     (1,21,1)             -4756.3610     
     11     (1,21,2)             -4756.3554     
     12     (1,21,3)             -4756.3513     
     13     (1,21,4)             -4756.3488     
     14     (1,21,5)             -4756.3465     
     15     (1,21,6)             -4756.3434     
     16     (1,21,7)             -4756.3400     
     17     (1,21,8)             -4756.3394     
     18     (1,21,9)             -4756.3512     
 -----------------------------------------------




 HEAD WILL BE SAVED ON UNIT 1016 AT END OF TIME STEP    3, STRESS PERIOD    2


  VOLUME BUDGET FOR ENTIRE MODEL AT END OF TIME STEP    3, STRESS PERIOD   2
  ---------------------------------------------------------------------------------------------------

     CUMULATIVE VOLUME      L**3       RATES FOR THIS TIME STEP      L**3/T          PACKAGE NAME    
     ------------------                 ------------------------                     ----------------

           IN:                                      IN:
           ---                                      ---
              STO-SS =           0.0000                STO-SS =           0.0000     STORAGE                          
              STO-SY =           0.0000                STO-SY =           0.0000     STORAGE                          
                 WEL =           0.0000                   WEL =           0.0000     WEL-1                            
                RCHA =     1254997.5954                  RCHA =      171000.0000     RCH-1                            
                 CHD =           0.0000                   CHD =           0.0000     CHD-FROM-IBOUND                  

            TOTAL IN =     1254997.5954              TOTAL IN =      171000.0000

          OUT:                                     OUT:
          ----                                     ----
              STO-SS =      566702.6282                STO-SS =       82825.3564     STORAGE                          
              STO-SY =       17521.4713                STO-SY =        2560.3500     STORAGE                          
                 WEL =           0.0000                   WEL =           0.0000     WEL-1                            
                RCHA =           0.0000                  RCHA =           0.0000     RCH-1                            
                 CHD =      670773.4980                   CHD =       85614.2938     CHD-FROM-IBOUND                  

           TOTAL OUT =     1254997.5974             TOTAL OUT =      171000.0002

            IN - OUT =      -1.9941E-03              IN - OUT =      -1.8702E-04

 PERCENT DISCREPANCY =          -0.00     PERCENT DISCREPANCY =          -0.00




         TIME SUMMARY AT END OF TIME STEP    3 IN STRESS PERIOD    2
                    SECONDS     MINUTES      HOURS       DAYS        YEARS
                    -----------------------------------------------------------
   TIME STEP LENGTH 2.33764E+05  3896.1      64.935      2.7056     7.40754E-03
 STRESS PERIOD TIME 5.90904E+05  9848.4      164.14      6.8392     1.87246E-02
         TOTAL TIME 6.77304E+05  11288.      188.14      7.8392     2.14625E-02


end timestep


start timestep kper="2" kstp="4" mode="normal"

 UBDSV1 SAVING     FLOW-JA-FACE ON UNIT   1015 AT TIME STEP      4, STRESS PERIOD      2
 UBDSV06 SAVING              WEL IN MODEL MUMODEL          PACKAGE MUMODEL         CONNECTED TO MODEL MUMODEL          PACKAGE WEL-1            ON UNIT   1015 AT TIME STEP      4, STRESS PERIOD      2
 UBDSV06 SAVING             RCHA IN MODEL MUMODEL          PACKAGE MUMODEL         CONNECTED TO MODEL MUMODEL          PACKAGE RCH-1            ON UNIT   1015 AT TIME STEP      4, STRESS PERIOD      2

 WEL PACKAGE (WEL-1) FLOW RATES   PERIOD      2   STEP        4
 -----------------------------------------------
   NUMBER   CELLID                    RATE      
 -----------------------------------------------
     1      (1,5,5)               0.0000000     
     2      (1,11,5)              0.0000000     
     3      (1,5,5)               0.0000000     
 -----------------------------------------------




 CHD PACKAGE (CHD-FROM-IBOUND) FLOW RATES   PERIOD      2   STEP        4
 -----------------------------------------------
   NUMBER   CELLID                    RATE      
 -----------------------------------------------
     1      (1,1,1)              -4759.3338     
     2      (1,1,2)              -4759.3278     
     3      (1,1,3)              -4759.3292     
     4      (1,1,4)              -4759.3317     
     5      (1,1,5)              -4759.3338     
     6      (1,1,6)              -4759.3355     
     7      (1,1,7)              -4759.3376     
     8      (1,1,8)              -4759.3405     
     9      (1,1,9)              -4759.3436     
     10     (1,21,1)             -4759.3450     
     11     (1,21,2)             -4759.3394     
     12     (1,21,3)             -4759.3353     
     13     (1,21,4)             -4759.3329     
     14     (1,21,5)             -4759.3306     
     15     (1,21,6)             -4759.3275     
     16     (1,21,7)             -4759.3242     
     17     (1,21,8)             -4759.3237     
     18     (1,21,9)             -4759.3352     
 -----------------------------------------------




 HEAD WILL BE SAVED ON UNIT 1016 AT END OF TIME STEP    4, STRESS PERIOD    2


  VOLUME BUDGET FOR ENTIRE MODEL AT END OF TIME STEP    4, STRESS PERIOD   2
  ---------------------------------------------------------------------------------------------------

     CUMULATIVE VOLUME      L**3       RATES FOR THIS TIME STEP      L**3/T          PACKAGE NAME    
     ------------------                 ------------------------                     ----------------

           IN:                                      IN:
           ---                                      ---
              STO-SS =           0.0000                STO-SS =           0.0000     STORAGE                          
              STO-SY =           0.0000                STO-SY =           0.0000     STORAGE                          
                 WEL =           0.0000                   WEL =           0.0000     WEL-1                            
                RCHA =     1810187.6627                  RCHA =      171000.0000     RCH-1                            
                 CHD =           0.0000                   CHD =           0.0000     CHD-FROM-IBOUND                  

            TOTAL IN =     1810187.6627              TOTAL IN =      171000.0000

          OUT:                                     OUT:
          ----                                     ----
              STO-SS =      835446.7668                STO-SS =       82773.9011     STORAGE                          
              STO-SY =       25826.8939                STO-SY =        2558.0920     STORAGE                          
                 WEL =           0.0000                   WEL =           0.0000     WEL-1                            
                RCHA =           0.0000                  RCHA =           0.0000     RCH-1                            
                 CHD =      948914.0050                   CHD =       85668.0073     CHD-FROM-IBOUND                  

           TOTAL OUT =     1810187.6657             TOTAL OUT =      171000.0003

            IN - OUT =      -3.0102E-03              IN - OUT =      -3.1297E-04

 PERCENT DISCREPANCY =          -0.00     PERCENT DISCREPANCY =          -0.00




         TIME SUMMARY AT END OF TIME STEP    4 IN STRESS PERIOD    2
                    SECONDS     MINUTES      HOURS       DAYS        YEARS
                    -----------------------------------------------------------
   TIME STEP LENGTH 2.80517E+05  4675.3      77.921      3.2467     8.88905E-03
 STRESS PERIOD TIME 8.71421E+05  14524.      242.06      10.086     2.76137E-02
         TOTAL TIME 9.57821E+05  15964.      266.06      11.086     3.03515E-02


end timestep


start timestep kper="2" kstp="5" mode="normal"

 UBDSV1 SAVING     FLOW-JA-FACE ON UNIT   1015 AT TIME STEP      5, STRESS PERIOD      2
 UBDSV06 SAVING              WEL IN MODEL MUMODEL          PACKAGE MUMODEL         CONNECTED TO MODEL MUMODEL          PACKAGE WEL-1            ON UNIT   1015 AT TIME STEP      5, STRESS PERIOD      2
 UBDSV06 SAVING             RCHA IN MODEL MUMODEL          PACKAGE MUMODEL         CONNECTED TO MODEL MUMODEL          PACKAGE RCH-1            ON UNIT   1015 AT TIME STEP      5, STRESS PERIOD      2

 WEL PACKAGE (WEL-1) FLOW RATES   PERIOD      2   STEP        5
 -----------------------------------------------
   NUMBER   CELLID                    RATE      
 -----------------------------------------------
     1      (1,5,5)               0.0000000     
     2      (1,11,5)              0.0000000     
     3      (1,5,5)               0.0000000     
 -----------------------------------------------




 CHD PACKAGE (CHD-FROM-IBOUND) FLOW RATES   PERIOD      2   STEP        5
 -----------------------------------------------
   NUMBER   CELLID                    RATE      
 -----------------------------------------------
     1      (1,1,1)              -4762.8896     
     2      (1,1,2)              -4762.8836     
     3      (1,1,3)              -4762.8849     
     4      (1,1,4)              -4762.8874     
     5      (1,1,5)              -4762.8895     
     6      (1,1,6)              -4762.8912     
     7      (1,1,7)              -4762.8933     
     8      (1,1,8)              -4762.8962     
     9      (1,1,9)              -4762.8992     
     10     (1,21,1)             -4762.9006     
     11     (1,21,2)             -4762.8951     
     12     (1,21,3)             -4762.8910     
     13     (1,21,4)             -4762.8886     
     14     (1,21,5)             -4762.8863     
     15     (1,21,6)             -4762.8833     
     16     (1,21,7)             -4762.8800     
     17     (1,21,8)             -4762.8796     
     18     (1,21,9)             -4762.8910     
 -----------------------------------------------




 HEAD WILL BE SAVED ON UNIT 1016 AT END OF TIME STEP    5, STRESS PERIOD    2


  VOLUME BUDGET FOR ENTIRE MODEL AT END OF TIME STEP    5, STRESS PERIOD   2
  ---------------------------------------------------------------------------------------------------

     CUMULATIVE VOLUME      L**3       RATES FOR THIS TIME STEP      L**3/T          PACKAGE NAME    
     ------------------                 ------------------------                     ----------------

           IN:                                      IN:
           ---                                      ---
              STO-SS =           0.0000                STO-SS =           0.0000     STORAGE                          
              STO-SY =           0.0000                STO-SY =           0.0000     STORAGE                          
                 WEL =           0.0000                   WEL =           0.0000     WEL-1                            
                RCHA =     2476415.7434                  RCHA =      171000.0000     RCH-1                            
                 CHD =           0.0000                   CHD =           0.0000     CHD-FROM-IBOUND                  

            TOTAL IN =     2476415.7434              TOTAL IN =      171000.0000

          OUT:                                     OUT:
          ----                                     ----
              STO-SS =     1157700.8503                STO-SS =       82712.5873     STORAGE                          
              STO-SY =       35782.9251                STO-SY =        2555.4032     STORAGE                          
                 WEL =           0.0000                   WEL =           0.0000     WEL-1                            
                RCHA =           0.0000                  RCHA =           0.0000     RCH-1                            
                 CHD =     1282931.9731                   CHD =       85732.0101     CHD-FROM-IBOUND                  

           TOTAL OUT =     2476415.7485             TOTAL OUT =      171000.0005

            IN - OUT =      -5.0855E-03              IN - OUT =      -5.3266E-04

 PERCENT DISCREPANCY =          -0.00     PERCENT DISCREPANCY =          -0.00




         TIME SUMMARY AT END OF TIME STEP    5 IN STRESS PERIOD    2
                    SECONDS     MINUTES      HOURS       DAYS        YEARS
                    -----------------------------------------------------------
   TIME STEP LENGTH 3.36621E+05  5610.3      93.506      3.8961     1.06669E-02
 STRESS PERIOD TIME 1.20804E+06  20134.      335.57      13.982     3.82805E-02
         TOTAL TIME 1.29444E+06  21574.      359.57      14.982     4.10184E-02


end timestep


start timestep kper="2" kstp="6" mode="normal"

 UBDSV1 SAVING     FLOW-JA-FACE ON UNIT   1015 AT TIME STEP      6, STRESS PERIOD      2
 UBDSV06 SAVING              WEL IN MODEL MUMODEL          PACKAGE MUMODEL         CONNECTED TO MODEL MUMODEL          PACKAGE WEL-1            ON UNIT   1015 AT TIME STEP      6, STRESS PERIOD      2
 UBDSV06 SAVING             RCHA IN MODEL MUMODEL          PACKAGE MUMODEL         CONNECTED TO MODEL MUMODEL          PACKAGE RCH-1            ON UNIT   1015 AT TIME STEP      6, STRESS PERIOD      2

 WEL PACKAGE (WEL-1) FLOW RATES   PERIOD      2   STEP        6
 -----------------------------------------------
   NUMBER   CELLID                    RATE      
 -----------------------------------------------
     1      (1,5,5)               0.0000000     
     2      (1,11,5)              0.0000000     
     3      (1,5,5)               0.0000000     
 -----------------------------------------------




 CHD PACKAGE (CHD-FROM-IBOUND) FLOW RATES   PERIOD      2   STEP        6
 -----------------------------------------------
   NUMBER   CELLID                    RATE      
 -----------------------------------------------
     1      (1,1,1)              -4767.1208     
     2      (1,1,2)              -4767.1150     
     3      (1,1,3)              -4767.1162     
     4      (1,1,4)              -4767.1186     
     5      (1,1,5)              -4767.1207     
     6      (1,1,6)              -4767.1224     
     7      (1,1,7)              -4767.1244     
     8      (1,1,8)              -4767.1273     
     9      (1,1,9)              -4767.1304     
     10     (1,21,1)             -4767.1316     
     11     (1,21,2)             -4767.1262     
     12     (1,21,3)             -4767.1222     
     13     (1,21,4)             -4767.1198     
     14     (1,21,5)             -4767.1175     
     15     (1,21,6)             -4767.1145     
     16     (1,21,7)             -4767.1113     
     17     (1,21,8)             -4767.1110     
     18     (1,21,9)             -4767.1222     
 -----------------------------------------------




 HEAD WILL BE SAVED ON UNIT 1016 AT END OF TIME STEP    6, STRESS PERIOD    2


  VOLUME BUDGET FOR ENTIRE MODEL AT END OF TIME STEP    6, STRESS PERIOD   2
  ---------------------------------------------------------------------------------------------------

     CUMULATIVE VOLUME      L**3       RATES FOR THIS TIME STEP      L**3/T          PACKAGE NAME    
     ------------------                 ------------------------                     ----------------

           IN:                                      IN:
           ---                                      ---
              STO-SS =           0.0000                STO-SS =           0.0000     STORAGE                          
              STO-SY =           0.0000                STO-SY =           0.0000     STORAGE                          
                 WEL =           0.0000                   WEL =           0.0000     WEL-1                            
                RCHA =     3275889.4403                  RCHA =      171000.0000     RCH-1                            
                 CHD =           0.0000                   CHD =           0.0000     CHD-FROM-IBOUND                  

            TOTAL IN =     3275889.4403              TOTAL IN =      171000.0000

          OUT:                                     OUT:
          ----                                     ----
              STO-SS =     1544064.6220                STO-SS =       82639.6231     STORAGE                          
              STO-SY =       47715.2143                STO-SY =        2552.2059     STORAGE                          
                 WEL =           0.0000                   WEL =           0.0000     WEL-1                            
                RCHA =           0.0000                  RCHA =           0.0000     RCH-1                            
                 CHD =     1684109.6132                   CHD =       85808.1720     CHD-FROM-IBOUND                  

           TOTAL OUT =     3275889.4496             TOTAL OUT =      171000.0009

            IN - OUT =      -9.2951E-03              IN - OUT =      -9.0039E-04

 PERCENT DISCREPANCY =          -0.00     PERCENT DISCREPANCY =          -0.00




         TIME SUMMARY AT END OF TIME STEP    6 IN STRESS PERIOD    2
                    SECONDS     MINUTES      HOURS       DAYS        YEARS
                    -----------------------------------------------------------
   TIME STEP LENGTH 4.03945E+05  6732.4      112.21      4.6753     1.28002E-02
 STRESS PERIOD TIME 1.61199E+06  26866.      447.77      18.657     5.10808E-02
         TOTAL TIME 1.69839E+06  28306.      471.77      19.657     5.38186E-02


end timestep


start timestep kper="2" kstp="7" mode="normal"

 UBDSV1 SAVING     FLOW-JA-FACE ON UNIT   1015 AT TIME STEP      7, STRESS PERIOD      2
 UBDSV06 SAVING              WEL IN MODEL MUMODEL          PACKAGE MUMODEL         CONNECTED TO MODEL MUMODEL          PACKAGE WEL-1            ON UNIT   1015 AT TIME STEP      7, STRESS PERIOD      2
 UBDSV06 SAVING             RCHA IN MODEL MUMODEL          PACKAGE MUMODEL         CONNECTED TO MODEL MUMODEL          PACKAGE RCH-1            ON UNIT   1015 AT TIME STEP      7, STRESS PERIOD      2

 WEL PACKAGE (WEL-1) FLOW RATES   PERIOD      2   STEP        7
 -----------------------------------------------
   NUMBER   CELLID                    RATE      
 -----------------------------------------------
     1      (1,5,5)               0.0000000     
     2      (1,11,5)              0.0000000     
     3      (1,5,5)               0.0000000     
 -----------------------------------------------




 CHD PACKAGE (CHD-FROM-IBOUND) FLOW RATES   PERIOD      2   STEP        7
 -----------------------------------------------
   NUMBER   CELLID                    RATE      
 -----------------------------------------------
     1      (1,1,1)              -4772.1479     
     2      (1,1,2)              -4772.1423     
     3      (1,1,3)              -4772.1434     
     4      (1,1,4)              -4772.1458     
     5      (1,1,5)              -4772.1478     
     6      (1,1,6)              -4772.1495     
     7      (1,1,7)              -4772.1516     
     8      (1,1,8)              -4772.1544     
     9      (1,1,9)              -4772.1575     
     10     (1,21,1)             -4772.1587     
     11     (1,21,2)             -4772.1533     
     12     (1,21,3)             -4772.1493     
     13     (1,21,4)             -4772.1469     
     14     (1,21,5)             -4772.1447     
     15     (1,21,6)             -4772.1418     
     16     (1,21,7)             -4772.1386     
     17     (1,21,8)             -4772.1384     
     18     (1,21,9)             -4772.1493     
 -----------------------------------------------




 HEAD WILL BE SAVED ON UNIT 1016 AT END OF TIME STEP    7, STRESS PERIOD    2


  VOLUME BUDGET FOR ENTIRE MODEL AT END OF TIME STEP    7, STRESS PERIOD   2
  ---------------------------------------------------------------------------------------------------

     CUMULATIVE VOLUME      L**3       RATES FOR THIS TIME STEP      L**3/T          PACKAGE NAME    
     ------------------                 ------------------------                     ----------------

           IN:                                      IN:
           ---                                      ---
              STO-SS =           0.0000                STO-SS =           0.0000     STORAGE                          
              STO-SY =           0.0000                STO-SY =           0.0000     STORAGE                          
                 WEL =           0.0000                   WEL =           0.0000     WEL-1                            
                RCHA =     4235257.8765                  RCHA =      171000.0000     RCH-1                            
                 CHD =           0.0000                   CHD =           0.0000     CHD-FROM-IBOUND                  

            TOTAL IN =     4235257.8765              TOTAL IN =      171000.0000

          OUT:                                     OUT:
          ----                                     ----
              STO-SS =     2007214.7701                STO-SS =       82552.9300     STORAGE                          
              STO-SY =       62012.6681                STO-SY =        2548.4105     STORAGE                          
                 WEL =           0.0000                   WEL =           0.0000     WEL-1                            
                RCHA =           0.0000                  RCHA =           0.0000     RCH-1                            
                 CHD =     2166030.4562                   CHD =       85898.6611     CHD-FROM-IBOUND                  

           TOTAL OUT =     4235257.8943             TOTAL OUT =      171000.0015

            IN - OUT =      -1.7793E-02              IN - OUT =      -1.5147E-03

 PERCENT DISCREPANCY =          -0.00     PERCENT DISCREPANCY =          -0.00




         TIME SUMMARY AT END OF TIME STEP    7 IN STRESS PERIOD    2
                    SECONDS     MINUTES      HOURS       DAYS        YEARS
                    -----------------------------------------------------------
   TIME STEP LENGTH 4.84734E+05  8078.9      134.65      5.6103     1.53603E-02
 STRESS PERIOD TIME 2.09672E+06  34945.      582.42      24.268     6.64410E-02
         TOTAL TIME 2.18312E+06  36385.      606.42      25.268     6.91789E-02


end timestep


start timestep kper="2" kstp="8" mode="normal"

 UBDSV1 SAVING     FLOW-JA-FACE ON UNIT   1015 AT TIME STEP      8, STRESS PERIOD      2
 UBDSV06 SAVING              WEL IN MODEL MUMODEL          PACKAGE MUMODEL         CONNECTED TO MODEL MUMODEL          PACKAGE WEL-1            ON UNIT   1015 AT TIME STEP      8, STRESS PERIOD      2
 UBDSV06 SAVING             RCHA IN MODEL MUMODEL          PACKAGE MUMODEL         CONNECTED TO MODEL MUMODEL          PACKAGE RCH-1            ON UNIT   1015 AT TIME STEP      8, STRESS PERIOD      2

 WEL PACKAGE (WEL-1) FLOW RATES   PERIOD      2   STEP        8
 -----------------------------------------------
   NUMBER   CELLID                    RATE      
 -----------------------------------------------
     1      (1,5,5)               0.0000000     
     2      (1,11,5)              0.0000000     
     3      (1,5,5)               0.0000000     
 -----------------------------------------------




 CHD PACKAGE (CHD-FROM-IBOUND) FLOW RATES   PERIOD      2   STEP        8
 -----------------------------------------------
   NUMBER   CELLID                    RATE      
 -----------------------------------------------
     1      (1,1,1)              -4778.1099     
     2      (1,1,2)              -4778.1043     
     3      (1,1,3)              -4778.1054     
     4      (1,1,4)              -4778.1077     
     5      (1,1,5)              -4778.1097     
     6      (1,1,6)              -4778.1114     
     7      (1,1,7)              -4778.1135     
     8      (1,1,8)              -4778.1163     
     9      (1,1,9)              -4778.1193     
     10     (1,21,1)             -4778.1204     
     11     (1,21,2)             -4778.1151     
     12     (1,21,3)             -4778.1112     
     13     (1,21,4)             -4778.1088     
     14     (1,21,5)             -4778.1066     
     15     (1,21,6)             -4778.1037     
     16     (1,21,7)             -4778.1007     
     17     (1,21,8)             -4778.1007     
     18     (1,21,9)             -4778.1112     
 -----------------------------------------------




 HEAD WILL BE SAVED ON UNIT 1016 AT END OF TIME STEP    8, STRESS PERIOD    2


  VOLUME BUDGET FOR ENTIRE MODEL AT END OF TIME STEP    8, STRESS PERIOD   2
  ---------------------------------------------------------------------------------------------------

     CUMULATIVE VOLUME      L**3       RATES FOR THIS TIME STEP      L**3/T          PACKAGE NAME    
     ------------------                 ------------------------                     ----------------

           IN:                                      IN:
           ---                                      ---
              STO-SS =           0.0000                STO-SS =           0.0000     STORAGE                          
              STO-SY =           0.0000                STO-SY =           0.0000     STORAGE                          
                 WEL =           0.0000                   WEL =           0.0000     WEL-1                            
                RCHA =     5386500.0000                  RCHA =      171000.0000     RCH-1                            
                 CHD =           0.0000                   CHD =           0.0000     CHD-FROM-IBOUND                  

            TOTAL IN =     5386500.0000              TOTAL IN =      171000.0000

          OUT:                                     OUT:
          ----                                     ----
              STO-SS =     2562302.7380                STO-SS =       82450.1124     STORAGE                          
              STO-SY =       79139.3413                STO-SY =        2543.9141     STORAGE                          
                 WEL =           0.0000                   WEL =           0.0000     WEL-1                            
                RCHA =           0.0000                  RCHA =           0.0000     RCH-1                            
                 CHD =     2745057.9556                   CHD =       86005.9760     CHD-FROM-IBOUND                  

           TOTAL OUT =     5386500.0348             TOTAL OUT =      171000.0025

            IN - OUT =      -3.4839E-02              IN - OUT =      -2.5319E-03

 PERCENT DISCREPANCY =          -0.00     PERCENT DISCREPANCY =          -0.00




         TIME SUMMARY AT END OF TIME STEP    8 IN STRESS PERIOD    2
                    SECONDS     MINUTES      HOURS       DAYS        YEARS
                    -----------------------------------------------------------
   TIME STEP LENGTH 5.81680E+05  9694.7      161.58      6.7324     1.84323E-02
 STRESS PERIOD TIME 2.67840E+06  44640.      744.00      31.000     8.48734E-02
         TOTAL TIME 2.76480E+06  46080.      768.00      32.000     8.76112E-02


end timestep


start timestep kper="3" kstp="1" mode="normal"


 OUTPUT CONTROL FOR STRESS PERIOD 3 IS REPEATED USING SETTINGS FROM A PREVIOUS STRESS PERIOD.


 STRESS PERIOD 3 IS TRANSIENT


 REUSING WELS FROM LAST STRESS PERIOD

 REUSING CHDS FROM LAST STRESS PERIOD
 UBDSV1 SAVING     FLOW-JA-FACE ON UNIT   1015 AT TIME STEP      1, STRESS PERIOD      3
 UBDSV06 SAVING              WEL IN MODEL MUMODEL          PACKAGE MUMODEL         CONNECTED TO MODEL MUMODEL          PACKAGE WEL-1            ON UNIT   1015 AT TIME STEP      1, STRESS PERIOD      3
 UBDSV06 SAVING             RCHA IN MODEL MUMODEL          PACKAGE MUMODEL         CONNECTED TO MODEL MUMODEL          PACKAGE RCH-1            ON UNIT   1015 AT TIME STEP      1, STRESS PERIOD      3

 WEL PACKAGE (WEL-1) FLOW RATES   PERIOD      3   STEP        1
 -----------------------------------------------
   NUMBER   CELLID                    RATE      
 -----------------------------------------------
     1      (1,5,5)               0.0000000     
     2      (1,11,5)              0.0000000     
     3      (1,5,5)               0.0000000     
 -----------------------------------------------




 CHD PACKAGE (CHD-FROM-IBOUND) FLOW RATES   PERIOD      3   STEP        1
 -----------------------------------------------
   NUMBER   CELLID                    RATE      
 -----------------------------------------------
     1      (1,1,1)              -4785.9430     
     2      (1,1,2)              -4785.9375     
     3      (1,1,3)              -4785.9385     
     4      (1,1,4)              -4785.9409     
     5      (1,1,5)              -4785.9429     
     6      (1,1,6)              -4785.9446     
     7      (1,1,7)              -4785.9466     
     8      (1,1,8)              -4785.9494     
     9      (1,1,9)              -4785.9524     
     10     (1,21,1)             -4785.9535     
     11     (1,21,2)             -4785.9482     
     12     (1,21,3)             -4785.9443     
     13     (1,21,4)             -4785.9420     
     14     (1,21,5)             -4785.9398     
     15     (1,21,6)             -4785.9369     
     16     (1,21,7)             -4785.9338     
     17     (1,21,8)             -4785.9339     
     18     (1,21,9)             -4785.9444     
 -----------------------------------------------




 HEAD WILL BE SAVED ON UNIT 1016 AT END OF TIME STEP    1, STRESS PERIOD    3


  VOLUME BUDGET FOR ENTIRE MODEL AT END OF TIME STEP    1, STRESS PERIOD   3
  ---------------------------------------------------------------------------------------------------

     CUMULATIVE VOLUME      L**3       RATES FOR THIS TIME STEP      L**3/T          PACKAGE NAME    
     ------------------                 ------------------------                     ----------------

           IN:                                      IN:
           ---                                      ---
              STO-SS =           0.0000                STO-SS =           0.0000     STORAGE                          
              STO-SY =           0.0000                STO-SY =           0.0000     STORAGE                          
                 WEL =           0.0000                   WEL =           0.0000     WEL-1                            
                RCHA =     6257093.7435                  RCHA =      513000.0000     RCH-1                            
                 CHD =           0.0000                   CHD =           0.0000     CHD-FROM-IBOUND                  

            TOTAL IN =     6257093.7435              TOTAL IN =      513000.0000

          OUT:                                     OUT:
          ----                                     ----
              STO-SS =     3264991.3794                STO-SS =      414061.4101     STORAGE                          
              STO-SY =      100847.5331                STO-SY =       12791.6178     STORAGE                          
                 WEL =           0.0000                   WEL =           0.0000     WEL-1                            
                RCHA =           0.0000                  RCHA =           0.0000     RCH-1                            
                 CHD =     2891254.8662                   CHD =       86146.9723     CHD-FROM-IBOUND                  

           TOTAL OUT =     6257093.7788             TOTAL OUT =      513000.0003

            IN - OUT =      -3.5280E-02              IN - OUT =      -2.5984E-04

 PERCENT DISCREPANCY =          -0.00     PERCENT DISCREPANCY =          -0.00




         TIME SUMMARY AT END OF TIME STEP    1 IN STRESS PERIOD    3
                    SECONDS     MINUTES      HOURS       DAYS        YEARS
                    -----------------------------------------------------------
   TIME STEP LENGTH 1.46626E+05  2443.8      40.730      1.6971     4.64631E-03
 STRESS PERIOD TIME 1.46626E+05  2443.8      40.730      1.6971     4.64631E-03
         TOTAL TIME 2.91143E+06  48524.      808.73      33.697     9.22575E-02


end timestep


start timestep kper="3" kstp="2" mode="normal"

 UBDSV1 SAVING     FLOW-JA-FACE ON UNIT   1015 AT TIME STEP      2, STRESS PERIOD      3
 UBDSV06 SAVING              WEL IN MODEL MUMODEL          PACKAGE MUMODEL         CONNECTED TO MODEL MUMODEL          PACKAGE WEL-1            ON UNIT   1015 AT TIME STEP      2, STRESS PERIOD      3
 UBDSV06 SAVING             RCHA IN MODEL MUMODEL          PACKAGE MUMODEL         CONNECTED TO MODEL MUMODEL          PACKAGE RCH-1            ON UNIT   1015 AT TIME STEP      2, STRESS PERIOD      3

 WEL PACKAGE (WEL-1) FLOW RATES   PERIOD      3   STEP        2
 -----------------------------------------------
   NUMBER   CELLID                    RATE      
 -----------------------------------------------
     1      (1,5,5)               0.0000000     
     2      (1,11,5)              0.0000000     
     3      (1,5,5)               0.0000000     
 -----------------------------------------------




 CHD PACKAGE (CHD-FROM-IBOUND) FLOW RATES   PERIOD      3   STEP        2
 -----------------------------------------------
   NUMBER   CELLID                    RATE      
 -----------------------------------------------
     1      (1,1,1)              -4795.3070     
     2      (1,1,2)              -4795.3016     
     3      (1,1,3)              -4795.3026     
     4      (1,1,4)              -4795.3049     
     5      (1,1,5)              -4795.3069     
     6      (1,1,6)              -4795.3086     
     7      (1,1,7)              -4795.3106     
     8      (1,1,8)              -4795.3134     
     9      (1,1,9)              -4795.3164     
     10     (1,21,1)             -4795.3174     
     11     (1,21,2)             -4795.3122     
     12     (1,21,3)             -4795.3083     
     13     (1,21,4)             -4795.3060     
     14     (1,21,5)             -4795.3038     
     15     (1,21,6)             -4795.3009     
     16     (1,21,7)             -4795.2979     
     17     (1,21,8)             -4795.2980     
     18     (1,21,9)             -4795.3084     
 -----------------------------------------------




 HEAD WILL BE SAVED ON UNIT 1016 AT END OF TIME STEP    2, STRESS PERIOD    3


  VOLUME BUDGET FOR ENTIRE MODEL AT END OF TIME STEP    2, STRESS PERIOD   3
  ---------------------------------------------------------------------------------------------------

     CUMULATIVE VOLUME      L**3       RATES FOR THIS TIME STEP      L**3/T          PACKAGE NAME    
     ------------------                 ------------------------                     ----------------

           IN:                                      IN:
           ---                                      ---
              STO-SS =           0.0000                STO-SS =           0.0000     STORAGE                          
              STO-SY =           0.0000                STO-SY =           0.0000     STORAGE                          
                 WEL =           0.0000                   WEL =           0.0000     WEL-1                            
                RCHA =     7301806.2357                  RCHA =      513000.0000     RCH-1                            
                 CHD =           0.0000                   CHD =           0.0000     CHD-FROM-IBOUND                  

            TOTAL IN =     7301806.2357              TOTAL IN =      513000.0000

          OUT:                                     OUT:
          ----                                     ----
              STO-SS =     4107892.6095                STO-SS =      413901.7522     STORAGE                          
              STO-SY =      126879.2500                STO-SY =       12782.7233     STORAGE                          
                 WEL =           0.0000                   WEL =           0.0000     WEL-1                            
                RCHA =           0.0000                  RCHA =           0.0000     RCH-1                            
                 CHD =     3067034.4123                   CHD =       86315.5249     CHD-FROM-IBOUND                  

           TOTAL OUT =     7301806.2718             TOTAL OUT =      513000.0004

            IN - OUT =      -3.6196E-02              IN - OUT =      -4.4974E-04

 PERCENT DISCREPANCY =          -0.00     PERCENT DISCREPANCY =          -0.00




         TIME SUMMARY AT END OF TIME STEP    2 IN STRESS PERIOD    3
                    SECONDS     MINUTES      HOURS       DAYS        YEARS
                    -----------------------------------------------------------
   TIME STEP LENGTH 1.75952E+05  2932.5      48.875      2.0365     5.57557E-03
 STRESS PERIOD TIME 3.22578E+05  5376.3      89.605      3.7335     1.02219E-02
         TOTAL TIME 3.08738E+06  51456.      857.60      35.734     9.78331E-02


end timestep


start timestep kper="3" kstp="3" mode="normal"

 UBDSV1 SAVING     FLOW-JA-FACE ON UNIT   1015 AT TIME STEP      3, STRESS PERIOD      3
 UBDSV06 SAVING              WEL IN MODEL MUMODEL          PACKAGE MUMODEL         CONNECTED TO MODEL MUMODEL          PACKAGE WEL-1            ON UNIT   1015 AT TIME STEP      3, STRESS PERIOD      3
 UBDSV06 SAVING             RCHA IN MODEL MUMODEL          PACKAGE MUMODEL         CONNECTED TO MODEL MUMODEL          PACKAGE RCH-1            ON UNIT   1015 AT TIME STEP      3, STRESS PERIOD      3

 WEL PACKAGE (WEL-1) FLOW RATES   PERIOD      3   STEP        3
 -----------------------------------------------
   NUMBER   CELLID                    RATE      
 -----------------------------------------------
     1      (1,5,5)               0.0000000     
     2      (1,11,5)              0.0000000     
     3      (1,5,5)               0.0000000     
 -----------------------------------------------




 CHD PACKAGE (CHD-FROM-IBOUND) FLOW RATES   PERIOD      3   STEP        3
 -----------------------------------------------
   NUMBER   CELLID                    RATE      
 -----------------------------------------------
     1      (1,1,1)              -4806.4933     
     2      (1,1,2)              -4806.4880     
     3      (1,1,3)              -4806.4889     
     4      (1,1,4)              -4806.4912     
     5      (1,1,5)              -4806.4932     
     6      (1,1,6)              -4806.4949     
     7      (1,1,7)              -4806.4969     
     8      (1,1,8)              -4806.4997     
     9      (1,1,9)              -4806.5027     
     10     (1,21,1)             -4806.5037     
     11     (1,21,2)             -4806.4985     
     12     (1,21,3)             -4806.4946     
     13     (1,21,4)             -4806.4923     
     14     (1,21,5)             -4806.4901     
     15     (1,21,6)             -4806.4873     
     16     (1,21,7)             -4806.4843     
     17     (1,21,8)             -4806.4844     
     18     (1,21,9)             -4806.4947     
 -----------------------------------------------




 HEAD WILL BE SAVED ON UNIT 1016 AT END OF TIME STEP    3, STRESS PERIOD    3


  VOLUME BUDGET FOR ENTIRE MODEL AT END OF TIME STEP    3, STRESS PERIOD   3
  ---------------------------------------------------------------------------------------------------

     CUMULATIVE VOLUME      L**3       RATES FOR THIS TIME STEP      L**3/T          PACKAGE NAME    
     ------------------                 ------------------------                     ----------------

           IN:                                      IN:
           ---                                      ---
              STO-SS =           0.0000                STO-SS =           0.0000     STORAGE                          
              STO-SY =           0.0000                STO-SY =           0.0000     STORAGE                          
                 WEL =           0.0000                   WEL =           0.0000     WEL-1                            
                RCHA =     8555461.2263                  RCHA =      513000.0000     RCH-1                            
                 CHD =           0.0000                   CHD =           0.0000     CHD-FROM-IBOUND                  

            TOTAL IN =     8555461.2263              TOTAL IN =      513000.0000

          OUT:                                     OUT:
          ----                                     ----
              STO-SS =     5118907.9872                STO-SS =      413711.0231     STORAGE                          
              STO-SY =      158091.3470                STO-SY =       12772.0991     STORAGE                          
                 WEL =           0.0000                   WEL =           0.0000     WEL-1                            
                RCHA =           0.0000                  RCHA =           0.0000     RCH-1                            
                 CHD =     3278461.9302                   CHD =       86516.8786     CHD-FROM-IBOUND                  

           TOTAL OUT =     8555461.2643             TOTAL OUT =      513000.0008

            IN - OUT =      -3.8071E-02              IN - OUT =      -7.6752E-04

 PERCENT DISCREPANCY =          -0.00     PERCENT DISCREPANCY =          -0.00




         TIME SUMMARY AT END OF TIME STEP    3 IN STRESS PERIOD    3
                    SECONDS     MINUTES      HOURS       DAYS        YEARS
                    -----------------------------------------------------------
   TIME STEP LENGTH 2.11142E+05  3519.0      58.651      2.4438     6.69068E-03
 STRESS PERIOD TIME 5.33720E+05  8895.3      148.26      6.1773     1.69126E-02
         TOTAL TIME 3.29852E+06  54975.      916.26      38.177     0.10452    


end timestep


start timestep kper="3" kstp="4" mode="normal"

 UBDSV1 SAVING     FLOW-JA-FACE ON UNIT   1015 AT TIME STEP      4, STRESS PERIOD      3
 UBDSV06 SAVING              WEL IN MODEL MUMODEL          PACKAGE MUMODEL         CONNECTED TO MODEL MUMODEL          PACKAGE WEL-1            ON UNIT   1015 AT TIME STEP      4, STRESS PERIOD      3
 UBDSV06 SAVING             RCHA IN MODEL MUMODEL          PACKAGE MUMODEL         CONNECTED TO MODEL MUMODEL          PACKAGE RCH-1            ON UNIT   1015 AT TIME STEP      4, STRESS PERIOD      3

 WEL PACKAGE (WEL-1) FLOW RATES   PERIOD      3   STEP        4
 -----------------------------------------------
   NUMBER   CELLID                    RATE      
 -----------------------------------------------
     1      (1,5,5)               0.0000000     
     2      (1,11,5)              0.0000000     
     3      (1,5,5)               0.0000000     
 -----------------------------------------------




 CHD PACKAGE (CHD-FROM-IBOUND) FLOW RATES   PERIOD      3   STEP        4
 -----------------------------------------------
   NUMBER   CELLID                    RATE      
 -----------------------------------------------
     1      (1,1,1)              -4819.8449     
     2      (1,1,2)              -4819.8396     
     3      (1,1,3)              -4819.8405     
     4      (1,1,4)              -4819.8428     
     5      (1,1,5)              -4819.8448     
     6      (1,1,6)              -4819.8465     
     7      (1,1,7)              -4819.8485     
     8      (1,1,8)              -4819.8513     
     9      (1,1,9)              -4819.8543     
     10     (1,21,1)             -4819.8552     
     11     (1,21,2)             -4819.8500     
     12     (1,21,3)             -4819.8462     
     13     (1,21,4)             -4819.8439     
     14     (1,21,5)             -4819.8417     
     15     (1,21,6)             -4819.8389     
     16     (1,21,7)             -4819.8359     
     17     (1,21,8)             -4819.8361     
     18     (1,21,9)             -4819.8463     
 -----------------------------------------------




 HEAD WILL BE SAVED ON UNIT 1016 AT END OF TIME STEP    4, STRESS PERIOD    3


  VOLUME BUDGET FOR ENTIRE MODEL AT END OF TIME STEP    4, STRESS PERIOD   3
  ---------------------------------------------------------------------------------------------------

     CUMULATIVE VOLUME      L**3       RATES FOR THIS TIME STEP      L**3/T          PACKAGE NAME    
     ------------------                 ------------------------                     ----------------

           IN:                                      IN:
           ---                                      ---
              STO-SS =           0.0000                STO-SS =           0.0000     STORAGE                          
              STO-SY =           0.0000                STO-SY =           0.0000     STORAGE                          
                 WEL =           0.0000                   WEL =           0.0000     WEL-1                            
                RCHA =    10059847.2150                  RCHA =      513000.0000     RCH-1                            
                 CHD =           0.0000                   CHD =           0.0000     CHD-FROM-IBOUND                  

            TOTAL IN =    10059847.2150              TOTAL IN =      513000.0000

          OUT:                                     OUT:
          ----                                     ----
              STO-SS =     6331458.8529                STO-SS =      413483.3738     STORAGE                          
              STO-SY =      195508.6811                STO-SY =       12759.4198     STORAGE                          
                 WEL =           0.0000                   WEL =           0.0000     WEL-1                            
                RCHA =           0.0000                  RCHA =           0.0000     RCH-1                            
                 CHD =     3532879.7229                   CHD =       86757.2077     CHD-FROM-IBOUND                  

           TOTAL OUT =    10059847.2569             TOTAL OUT =      513000.0013

            IN - OUT =      -4.1890E-02              IN - OUT =      -1.3023E-03

 PERCENT DISCREPANCY =          -0.00     PERCENT DISCREPANCY =          -0.00




         TIME SUMMARY AT END OF TIME STEP    4 IN STRESS PERIOD    3
                    SECONDS     MINUTES      HOURS       DAYS        YEARS
                    -----------------------------------------------------------
   TIME STEP LENGTH 2.53370E+05  4222.8      70.381      2.9325     8.02882E-03
 STRESS PERIOD TIME 7.87090E+05  13118.      218.64      9.1098     2.49414E-02
         TOTAL TIME 3.55189E+06  59198.      986.64      41.110     0.11255    


end timestep


start timestep kper="3" kstp="5" mode="normal"

 UBDSV1 SAVING     FLOW-JA-FACE ON UNIT   1015 AT TIME STEP      5, STRESS PERIOD      3
 UBDSV06 SAVING              WEL IN MODEL MUMODEL          PACKAGE MUMODEL         CONNECTED TO MODEL MUMODEL          PACKAGE WEL-1            ON UNIT   1015 AT TIME STEP      5, STRESS PERIOD      3
 UBDSV06 SAVING             RCHA IN MODEL MUMODEL          PACKAGE MUMODEL         CONNECTED TO MODEL MUMODEL          PACKAGE RCH-1            ON UNIT   1015 AT TIME STEP      5, STRESS PERIOD      3

 WEL PACKAGE (WEL-1) FLOW RATES   PERIOD      3   STEP        5
 -----------------------------------------------
   NUMBER   CELLID                    RATE      
 -----------------------------------------------
     1      (1,5,5)               0.0000000     
     2      (1,11,5)              0.0000000     
     3      (1,5,5)               0.0000000     
 -----------------------------------------------




 CHD PACKAGE (CHD-FROM-IBOUND) FLOW RATES   PERIOD      3   STEP        5
 -----------------------------------------------
   NUMBER   CELLID                    RATE      
 -----------------------------------------------
     1      (1,1,1)              -4835.7646     
     2      (1,1,2)              -4835.7594     
     3      (1,1,3)              -4835.7602     
     4      (1,1,4)              -4835.7625     
     5      (1,1,5)              -4835.7644     
     6      (1,1,6)              -4835.7661     
     7      (1,1,7)              -4835.7681     
     8      (1,1,8)              -4835.7709     
     9      (1,1,9)              -4835.7739     
     10     (1,21,1)             -4835.7748     
     11     (1,21,2)             -4835.7696     
     12     (1,21,3)             -4835.7658     
     13     (1,21,4)             -4835.7635     
     14     (1,21,5)             -4835.7614     
     15     (1,21,6)             -4835.7586     
     16     (1,21,7)             -4835.7557     
     17     (1,21,8)             -4835.7559     
     18     (1,21,9)             -4835.7660     
 -----------------------------------------------




 HEAD WILL BE SAVED ON UNIT 1016 AT END OF TIME STEP    5, STRESS PERIOD    3


  VOLUME BUDGET FOR ENTIRE MODEL AT END OF TIME STEP    5, STRESS PERIOD   3
  ---------------------------------------------------------------------------------------------------

     CUMULATIVE VOLUME      L**3       RATES FOR THIS TIME STEP      L**3/T          PACKAGE NAME    
     ------------------                 ------------------------                     ----------------

           IN:                                      IN:
           ---                                      ---
              STO-SS =           0.0000                STO-SS =           0.0000     STORAGE                          
              STO-SY =           0.0000                STO-SY =           0.0000     STORAGE                          
                 WEL =           0.0000                   WEL =           0.0000     WEL-1                            
                RCHA =    11865110.4015                  RCHA =      513000.0000     RCH-1                            
                 CHD =           0.0000                   CHD =           0.0000     CHD-FROM-IBOUND                  

            TOTAL IN =    11865110.4015              TOTAL IN =      513000.0000

          OUT:                                     OUT:
          ----                                     ----
              STO-SS =     7785564.6961                STO-SS =      413211.9367     STORAGE                          
              STO-SY =      240356.2890                STO-SY =       12744.3040     STORAGE                          
                 WEL =           0.0000                   WEL =           0.0000     WEL-1                            
                RCHA =           0.0000                  RCHA =           0.0000     RCH-1                            
                 CHD =     3839189.4661                   CHD =       87043.7615     CHD-FROM-IBOUND                  

           TOTAL OUT =    11865110.4512             TOTAL OUT =      513000.0022

            IN - OUT =      -4.9711E-02              IN - OUT =      -2.2224E-03

 PERCENT DISCREPANCY =          -0.00     PERCENT DISCREPANCY =          -0.00




         TIME SUMMARY AT END OF TIME STEP    5 IN STRESS PERIOD    3
                    SECONDS     MINUTES      HOURS       DAYS        YEARS
                    -----------------------------------------------------------
   TIME STEP LENGTH 3.04044E+05  5067.4      84.457      3.5190     9.63458E-03
 STRESS PERIOD TIME 1.09113E+06  18186.      303.09      12.629     3.45760E-02
         TOTAL TIME 3.85593E+06  64266.      1071.1      44.629     0.12219    


end timestep


start timestep kper="3" kstp="6" mode="normal"

 UBDSV1 SAVING     FLOW-JA-FACE ON UNIT   1015 AT TIME STEP      6, STRESS PERIOD      3
 UBDSV06 SAVING              WEL IN MODEL MUMODEL          PACKAGE MUMODEL         CONNECTED TO MODEL MUMODEL          PACKAGE WEL-1            ON UNIT   1015 AT TIME STEP      6, STRESS PERIOD      3
 UBDSV06 SAVING             RCHA IN MODEL MUMODEL          PACKAGE MUMODEL         CONNECTED TO MODEL MUMODEL          PACKAGE RCH-1            ON UNIT   1015 AT TIME STEP      6, STRESS PERIOD      3

 WEL PACKAGE (WEL-1) FLOW RATES   PERIOD      3   STEP        6
 -----------------------------------------------
[...]

           TOTAL OUT =   166887207.0594             TOTAL OUT =      113312.5607

            IN - OUT =          -1.7236              IN - OUT =      -2.0344E-05

 PERCENT DISCREPANCY =          -0.00     PERCENT DISCREPANCY =          -0.00




         TIME SUMMARY AT END OF TIME STEP    4 IN STRESS PERIOD   25
                    SECONDS     MINUTES      HOURS       DAYS        YEARS
                    -----------------------------------------------------------
   TIME STEP LENGTH 2.80517E+05  4675.3      77.921      3.2467     8.88905E-03
 STRESS PERIOD TIME 8.71421E+05  14524.      242.06      10.086     2.76137E-02
         TOTAL TIME 6.13514E+07 1.02252E+06  17042.      710.09      1.9441    


end timestep


start timestep kper="25" kstp="5" mode="normal"

 UBDSV1 SAVING     FLOW-JA-FACE ON UNIT   1015 AT TIME STEP      5, STRESS PERIOD     25
 UBDSV06 SAVING              WEL IN MODEL MUMODEL          PACKAGE MUMODEL         CONNECTED TO MODEL MUMODEL          PACKAGE WEL-1            ON UNIT   1015 AT TIME STEP      5, STRESS PERIOD     25
 UBDSV06 SAVING             RCHA IN MODEL MUMODEL          PACKAGE MUMODEL         CONNECTED TO MODEL MUMODEL          PACKAGE RCH-1            ON UNIT   1015 AT TIME STEP      5, STRESS PERIOD     25

 WEL PACKAGE (WEL-1) FLOW RATES   PERIOD     25   STEP        5
 -----------------------------------------------
   NUMBER   CELLID                    RATE      
 -----------------------------------------------
     1      (1,5,5)              -20000.000     
     2      (1,11,5)              0.0000000     
     3      (1,5,5)               0.0000000     
 -----------------------------------------------




 CHD PACKAGE (CHD-FROM-IBOUND) FLOW RATES   PERIOD     25   STEP        5
 -----------------------------------------------
   NUMBER   CELLID                    RATE      
 -----------------------------------------------
     1      (1,1,1)              -5185.9615     
     2      (1,1,2)              -5185.4462     
     3      (1,1,3)              -5182.7479     
     4      (1,1,4)              -5173.1943     
     5      (1,1,5)              -5157.0625     
     6      (1,1,6)              -5173.1956     
     7      (1,1,7)              -5182.7503     
     8      (1,1,8)              -5185.4493     
     9      (1,1,9)              -5185.9650     
     10     (1,21,1)             -5186.0640     
     11     (1,21,2)             -5186.0632     
     12     (1,21,3)             -5186.0621     
     13     (1,21,4)             -5186.0612     
     14     (1,21,5)             -5186.0605     
     15     (1,21,6)             -5186.0603     
     16     (1,21,7)             -5186.0609     
     17     (1,21,8)             -5186.0623     
     18     (1,21,9)             -5186.0636     
 -----------------------------------------------




 HEAD WILL BE SAVED ON UNIT 1016 AT END OF TIME STEP    5, STRESS PERIOD   25


  VOLUME BUDGET FOR ENTIRE MODEL AT END OF TIME STEP    5, STRESS PERIOD  25
  ---------------------------------------------------------------------------------------------------

     CUMULATIVE VOLUME      L**3       RATES FOR THIS TIME STEP      L**3/T          PACKAGE NAME    
     ------------------                 ------------------------                     ----------------

           IN:                                      IN:
           ---                                      ---
              STO-SS =    31537148.8594                STO-SS =       26894.1057     STORAGE                          
              STO-SY =      993670.1529                STO-SY =         892.2251     STORAGE                          
                 WEL =           0.0000                   WEL =           0.0000     WEL-1                            
                RCHA =   134797757.8717                  RCHA =       85500.0000     RCH-1                            
                 CHD =           0.0000                   CHD =           0.0000     CHD-FROM-IBOUND                  

            TOTAL IN =   167328576.8840              TOTAL IN =      113286.3308

          OUT:                                     OUT:
          ----                                     ----
              STO-SS =    91280055.2773                STO-SS =           0.0000     STORAGE                          
              STO-SY =     2781319.9403                STO-SY =           0.0000     STORAGE                          
                 WEL =     6959639.2682                   WEL =       20000.0000     WEL-1                            
                RCHA =           0.0000                  RCHA =           0.0000     RCH-1                            
                 CHD =    66307564.1219                   CHD =       93286.3308     CHD-FROM-IBOUND                  

           TOTAL OUT =   167328578.6078             TOTAL OUT =      113286.3308

            IN - OUT =          -1.7237              IN - OUT =      -3.2791E-05

 PERCENT DISCREPANCY =          -0.00     PERCENT DISCREPANCY =          -0.00




         TIME SUMMARY AT END OF TIME STEP    5 IN STRESS PERIOD   25
                    SECONDS     MINUTES      HOURS       DAYS        YEARS
                    -----------------------------------------------------------
   TIME STEP LENGTH 3.36621E+05  5610.3      93.506      3.8961     1.06669E-02
 STRESS PERIOD TIME 1.20804E+06  20134.      335.57      13.982     3.82805E-02
         TOTAL TIME 6.16880E+07 1.02813E+06  17136.      713.98      1.9548    


end timestep


start timestep kper="25" kstp="6" mode="normal"

 UBDSV1 SAVING     FLOW-JA-FACE ON UNIT   1015 AT TIME STEP      6, STRESS PERIOD     25
 UBDSV06 SAVING              WEL IN MODEL MUMODEL          PACKAGE MUMODEL         CONNECTED TO MODEL MUMODEL          PACKAGE WEL-1            ON UNIT   1015 AT TIME STEP      6, STRESS PERIOD     25
 UBDSV06 SAVING             RCHA IN MODEL MUMODEL          PACKAGE MUMODEL         CONNECTED TO MODEL MUMODEL          PACKAGE RCH-1            ON UNIT   1015 AT TIME STEP      6, STRESS PERIOD     25

 WEL PACKAGE (WEL-1) FLOW RATES   PERIOD     25   STEP        6
 -----------------------------------------------
   NUMBER   CELLID                    RATE      
 -----------------------------------------------
     1      (1,5,5)              -20000.000     
     2      (1,11,5)              0.0000000     
     3      (1,5,5)               0.0000000     
 -----------------------------------------------




 CHD PACKAGE (CHD-FROM-IBOUND) FLOW RATES   PERIOD     25   STEP        6
 -----------------------------------------------
   NUMBER   CELLID                    RATE      
 -----------------------------------------------
     1      (1,1,1)              -5184.3610     
     2      (1,1,2)              -5183.8127     
     3      (1,1,3)              -5180.9738     
     4      (1,1,4)              -5171.0386     
     5      (1,1,5)              -5154.4698     
     6      (1,1,6)              -5171.0399     
     7      (1,1,7)              -5180.9762     
     8      (1,1,8)              -5183.8158     
     9      (1,1,9)              -5184.3644     
     10     (1,21,1)             -5184.4716     
     11     (1,21,2)             -5184.4707     
     12     (1,21,3)             -5184.4696     
     13     (1,21,4)             -5184.4687     
     14     (1,21,5)             -5184.4681     
     15     (1,21,6)             -5184.4679     
     16     (1,21,7)             -5184.4685     
     17     (1,21,8)             -5184.4698     
     18     (1,21,9)             -5184.4712     
 -----------------------------------------------




 HEAD WILL BE SAVED ON UNIT 1016 AT END OF TIME STEP    6, STRESS PERIOD   25


  VOLUME BUDGET FOR ENTIRE MODEL AT END OF TIME STEP    6, STRESS PERIOD  25
  ---------------------------------------------------------------------------------------------------

     CUMULATIVE VOLUME      L**3       RATES FOR THIS TIME STEP      L**3/T          PACKAGE NAME    
     ------------------                 ------------------------                     ----------------

           IN:                                      IN:
           ---                                      ---
              STO-SS =    31662746.0622                STO-SS =       26864.0754     STORAGE                          
              STO-SY =      997835.8449                STO-SY =         891.0028     STORAGE                          
                 WEL =           0.0000                   WEL =           0.0000     WEL-1                            
                RCHA =   135197494.7201                  RCHA =       85500.0000     RCH-1                            
                 CHD =           0.0000                   CHD =           0.0000     CHD-FROM-IBOUND                  

            TOTAL IN =   167858076.6272              TOTAL IN =      113255.0782

          OUT:                                     OUT:
          ----                                     ----
              STO-SS =    91280055.2773                STO-SS =           0.0000     STORAGE                          
              STO-SY =     2781319.9403                STO-SY =           0.0000     STORAGE                          
                 WEL =     7053144.9638                   WEL =       20000.0000     WEL-1                            
                RCHA =           0.0000                  RCHA =           0.0000     RCH-1                            
                 CHD =    66743558.1698                   CHD =       93255.0783     CHD-FROM-IBOUND                  

           TOTAL OUT =   167858078.3512             TOTAL OUT =      113255.0783

            IN - OUT =          -1.7240              IN - OUT =      -5.3836E-05

 PERCENT DISCREPANCY =          -0.00     PERCENT DISCREPANCY =          -0.00




         TIME SUMMARY AT END OF TIME STEP    6 IN STRESS PERIOD   25
                    SECONDS     MINUTES      HOURS       DAYS        YEARS
                    -----------------------------------------------------------
   TIME STEP LENGTH 4.03945E+05  6732.4      112.21      4.6753     1.28002E-02
 STRESS PERIOD TIME 1.61199E+06  26866.      447.77      18.657     5.10808E-02
         TOTAL TIME 6.20920E+07 1.03487E+06  17248.      718.66      1.9676    


end timestep


start timestep kper="25" kstp="7" mode="normal"

 UBDSV1 SAVING     FLOW-JA-FACE ON UNIT   1015 AT TIME STEP      7, STRESS PERIOD     25
 UBDSV06 SAVING              WEL IN MODEL MUMODEL          PACKAGE MUMODEL         CONNECTED TO MODEL MUMODEL          PACKAGE WEL-1            ON UNIT   1015 AT TIME STEP      7, STRESS PERIOD     25
 UBDSV06 SAVING             RCHA IN MODEL MUMODEL          PACKAGE MUMODEL         CONNECTED TO MODEL MUMODEL          PACKAGE RCH-1            ON UNIT   1015 AT TIME STEP      7, STRESS PERIOD     25

 WEL PACKAGE (WEL-1) FLOW RATES   PERIOD     25   STEP        7
 -----------------------------------------------
   NUMBER   CELLID                    RATE      
 -----------------------------------------------
     1      (1,5,5)              -20000.000     
     2      (1,11,5)              0.0000000     
     3      (1,5,5)               0.0000000     
 -----------------------------------------------




 CHD PACKAGE (CHD-FROM-IBOUND) FLOW RATES   PERIOD     25   STEP        7
 -----------------------------------------------
   NUMBER   CELLID                    RATE      
 -----------------------------------------------
     1      (1,1,1)              -5182.4620     
     2      (1,1,2)              -5181.8720     
     3      (1,1,3)              -5178.8578     
     4      (1,1,4)              -5168.4541     
     5      (1,1,5)              -5151.3578     
     6      (1,1,6)              -5168.4554     
     7      (1,1,7)              -5178.8602     
     8      (1,1,8)              -5181.8751     
     9      (1,1,9)              -5182.4654     
     10     (1,21,1)             -5182.5830     
     11     (1,21,2)             -5182.5822     
     12     (1,21,3)             -5182.5811     
     13     (1,21,4)             -5182.5802     
     14     (1,21,5)             -5182.5796     
     15     (1,21,6)             -5182.5794     
     16     (1,21,7)             -5182.5800     
     17     (1,21,8)             -5182.5814     
     18     (1,21,9)             -5182.5827     
 -----------------------------------------------




 HEAD WILL BE SAVED ON UNIT 1016 AT END OF TIME STEP    7, STRESS PERIOD   25


  VOLUME BUDGET FOR ENTIRE MODEL AT END OF TIME STEP    7, STRESS PERIOD  25
  ---------------------------------------------------------------------------------------------------

     CUMULATIVE VOLUME      L**3       RATES FOR THIS TIME STEP      L**3/T          PACKAGE NAME    
     ------------------                 ------------------------                     ----------------

           IN:                                      IN:
           ---                                      ---
              STO-SS =    31813262.2057                STO-SS =       26828.3379     STORAGE                          
              STO-SY =     1002826.5321                STO-SY =         889.5514     STORAGE                          
                 WEL =           0.0000                   WEL =           0.0000     WEL-1                            
                RCHA =   135677178.9383                  RCHA =       85500.0000     RCH-1                            
                 CHD =           0.0000                   CHD =           0.0000     CHD-FROM-IBOUND                  

            TOTAL IN =   168493267.6761              TOTAL IN =      113217.8892

          OUT:                                     OUT:
          ----                                     ----
              STO-SS =    91280055.2773                STO-SS =           0.0000     STORAGE                          
              STO-SY =     2781319.9403                STO-SY =           0.0000     STORAGE                          
                 WEL =     7165351.7984                   WEL =       20000.0000     WEL-1                            
                RCHA =           0.0000                  RCHA =           0.0000     RCH-1                            
                 CHD =    67266542.3846                   CHD =       93217.8893     CHD-FROM-IBOUND                  

           TOTAL OUT =   168493269.4006             TOTAL OUT =      113217.8893

            IN - OUT =          -1.7245              IN - OUT =      -8.5524E-05

 PERCENT DISCREPANCY =          -0.00     PERCENT DISCREPANCY =          -0.00




         TIME SUMMARY AT END OF TIME STEP    7 IN STRESS PERIOD   25
                    SECONDS     MINUTES      HOURS       DAYS        YEARS
                    -----------------------------------------------------------
   TIME STEP LENGTH 4.84734E+05  8078.9      134.65      5.6103     1.53603E-02
 STRESS PERIOD TIME 2.09672E+06  34945.      582.42      24.268     6.64410E-02
         TOTAL TIME 6.25767E+07 1.04295E+06  17382.      724.27      1.9829    


end timestep


start timestep kper="25" kstp="8" mode="normal"

 UBDSV1 SAVING     FLOW-JA-FACE ON UNIT   1015 AT TIME STEP      8, STRESS PERIOD     25
 UBDSV06 SAVING              WEL IN MODEL MUMODEL          PACKAGE MUMODEL         CONNECTED TO MODEL MUMODEL          PACKAGE WEL-1            ON UNIT   1015 AT TIME STEP      8, STRESS PERIOD     25
 UBDSV06 SAVING             RCHA IN MODEL MUMODEL          PACKAGE MUMODEL         CONNECTED TO MODEL MUMODEL          PACKAGE RCH-1            ON UNIT   1015 AT TIME STEP      8, STRESS PERIOD     25

 WEL PACKAGE (WEL-1) FLOW RATES   PERIOD     25   STEP        8
 -----------------------------------------------
   NUMBER   CELLID                    RATE      
 -----------------------------------------------
     1      (1,5,5)              -20000.000     
     2      (1,11,5)              0.0000000     
     3      (1,5,5)               0.0000000     
 -----------------------------------------------




 CHD PACKAGE (CHD-FROM-IBOUND) FLOW RATES   PERIOD     25   STEP        8
 -----------------------------------------------
   NUMBER   CELLID                    RATE      
 -----------------------------------------------
     1      (1,1,1)              -5180.2137     
     2      (1,1,2)              -5179.5706     
     3      (1,1,3)              -5176.3364     
     4      (1,1,4)              -5165.3554     
     5      (1,1,5)              -5147.6220     
     6      (1,1,6)              -5165.3566     
     7      (1,1,7)              -5176.3387     
     8      (1,1,8)              -5179.5736     
     9      (1,1,9)              -5180.2171     
     10     (1,21,1)             -5180.3484     
     11     (1,21,2)             -5180.3476     
     12     (1,21,3)             -5180.3465     
     13     (1,21,4)             -5180.3456     
     14     (1,21,5)             -5180.3450     
     15     (1,21,6)             -5180.3449     
     16     (1,21,7)             -5180.3454     
     17     (1,21,8)             -5180.3468     
     18     (1,21,9)             -5180.3481     
 -----------------------------------------------




 HEAD WILL BE SAVED ON UNIT 1016 AT END OF TIME STEP    8, STRESS PERIOD   25


  VOLUME BUDGET FOR ENTIRE MODEL AT END OF TIME STEP    8, STRESS PERIOD  25
  ---------------------------------------------------------------------------------------------------

     CUMULATIVE VOLUME      L**3       RATES FOR THIS TIME STEP      L**3/T          PACKAGE NAME    
     ------------------                 ------------------------                     ----------------

           IN:                                      IN:
           ---                                      ---
              STO-SS =    31993595.6763                STO-SS =       26785.8714     STORAGE                          
              STO-SY =     1008803.7741                STO-SY =         887.8309     STORAGE                          
                 WEL =           0.0000                   WEL =           0.0000     WEL-1                            
                RCHA =   136252800.0000                  RCHA =       85500.0000     RCH-1                            
                 CHD =           0.0000                   CHD =           0.0000     CHD-FROM-IBOUND                  

            TOTAL IN =   169255199.4504              TOTAL IN =      113173.7023

          OUT:                                     OUT:
          ----                                     ----
              STO-SS =    91280055.2773                STO-SS =           0.0000     STORAGE                          
              STO-SY =     2781319.9403                STO-SY =           0.0000     STORAGE                          
                 WEL =     7300000.0000                   WEL =       20000.0000     WEL-1                            
                RCHA =           0.0000                  RCHA =           0.0000     RCH-1                            
                 CHD =    67893825.9574                   CHD =       93173.7024     CHD-FROM-IBOUND                  

           TOTAL OUT =   169255201.1751             TOTAL OUT =      113173.7024

            IN - OUT =          -1.7246              IN - OUT =      -2.2286E-05

 PERCENT DISCREPANCY =          -0.00     PERCENT DISCREPANCY =          -0.00




         TIME SUMMARY AT END OF TIME STEP    8 IN STRESS PERIOD   25
                    SECONDS     MINUTES      HOURS       DAYS        YEARS
                    -----------------------------------------------------------
   TIME STEP LENGTH 5.81680E+05  9694.7      161.58      6.7324     1.84323E-02
 STRESS PERIOD TIME 2.67840E+06  44640.      744.00      31.000     8.48734E-02
         TOTAL TIME 6.31584E+07 1.05264E+06  17544.      731.00      2.0014    


end timestep

