                                  MODFLOW-2005     
      U.S. GEOLOGICAL SURVEY MODULAR FINITE-DIFFERENCE GROUND-WATER FLOW MODEL
                            VERSION 1.12.00 2/3/2017

 LIST FILE: 7-2b.lst
                         UNIT    7

 OPENING 7-2b.dis
 FILE TYPE:DIS   UNIT   29   STATUS:OLD    
 FORMAT:FORMATTED              ACCESS:SEQUENTIAL          

 OPENING 7-2b.bas
 FILE TYPE:BAS6   UNIT    1   STATUS:OLD    
 FORMAT:FORMATTED              ACCESS:SEQUENTIAL          

 OPENING 7-2b.lpf
 FILE TYPE:LPF   UNIT   11   STATUS:OLD    
 FORMAT:FORMATTED              ACCESS:SEQUENTIAL          

 OPENING 7-2b.wel
 FILE TYPE:WEL   UNIT   12   STATUS:OLD    
 FORMAT:FORMATTED              ACCESS:SEQUENTIAL          

 OPENING 7-2b.rch
 FILE TYPE:RCH   UNIT   18   STATUS:OLD    
 FORMAT:FORMATTED              ACCESS:SEQUENTIAL          

 OPENING 7-2b.oc
 FILE TYPE:OC   UNIT   22   STATUS:OLD    
 FORMAT:FORMATTED              ACCESS:SEQUENTIAL          

 OPENING 7-2b.pcg
 FILE TYPE:PCG   UNIT   19   STATUS:OLD    
 FORMAT:FORMATTED              ACCESS:SEQUENTIAL          

 OPENING 7-2b.cbb
 FILE TYPE:DATA(BINARY)   UNIT   50   STATUS:REPLACE
 FORMAT:UNFORMATTED            ACCESS:STREAM              

 OPENING 7-2b.hds
 FILE TYPE:DATA(BINARY)   UNIT   30   STATUS:REPLACE
 FORMAT:UNFORMATTED            ACCESS:STREAM              

 OPENING 7-2b.ddn
 FILE TYPE:DATA(BINARY)   UNIT   31   STATUS:REPLACE
 FORMAT:UNFORMATTED            ACCESS:STREAM              

 BAS -- BASIC PACKAGE, VERSION 7, 5/2/2005 INPUT READ FROM UNIT    1
 
 MODFLOW was compiled using mixed precision
 Precision of REAL variables:           6
 Precision of DOUBLE PRECISION variables:          15

 DISCRETIZATION INPUT DATA READ FROM UNIT   29
 # DIS package for MODFLOW-2000 generated by Flopy 3.5.0
    1 LAYERS        21 ROWS         9 COLUMNS
   25 STRESS PERIOD(S) IN SIMULATION
 MODEL TIME UNIT IS DAYS
 MODEL LENGTH UNIT IS UNDEFINED
  Confining bed flag for each layer:
   0

 OPENING FILE ON UNIT   99:
 .\delr.ref                                                                                                                                                                                              



                               DELR
 READING ON UNIT   99 WITH FORMAT: (FREE)              

 OPENING FILE ON UNIT   99:
 .\delc.ref                                                                                                                                                                                              



                               DELC
 READING ON UNIT   99 WITH FORMAT: (FREE)              

 OPENING FILE ON UNIT   99:
 .\model_top.ref                                                                                                                                                                                         



           TOP ELEVATION OF LAYER 1
 READING ON UNIT   99 WITH FORMAT: (FREE)              

 OPENING FILE ON UNIT   99:
 .\botm_layer_1.ref                                                                                                                                                                                      



             MODEL LAYER BOTTOM EL. FOR LAYER   1
 READING ON UNIT   99 WITH FORMAT: (FREE)              


 STRESS PERIOD     LENGTH       TIME STEPS     MULTIPLIER FOR DELT    SS FLAG
 ----------------------------------------------------------------------------
        1         1.000000          1                    1.200         SS
        2         31.00000          8                    1.200         TR
        3         28.00000          8                    1.200         TR
        4         31.00000          8                    1.200         TR
        5         30.00000          8                    1.200         TR
        6         31.00000          8                    1.200         TR
        7         30.00000          8                    1.200         TR
        8         31.00000          8                    1.200         TR
        9         31.00000          8                    1.200         TR
       10         30.00000          8                    1.200         TR
       11         31.00000          8                    1.200         TR
       12         30.00000          8                    1.200         TR
       13         31.00000          8                    1.200         TR
       14         31.00000          8                    1.200         TR
       15         28.00000          8                    1.200         TR
       16         31.00000          8                    1.200         TR
       17         30.00000          8                    1.200         TR
       18         31.00000          8                    1.200         TR
       19         30.00000          8                    1.200         TR
       20         31.00000          8                    1.200         TR
       21         31.00000          8                    1.200         TR
       22         30.00000          8                    1.200         TR
       23         31.00000          8                    1.200         TR
       24         30.00000          8                    1.200         TR
       25         31.00000          8                    1.200         TR

 COMBINED STEADY-STATE AND TRANSIENT SIMULATION



 
 # BAS6 package for MODFLOW-2000 generated by Flopy 3.5.0                        

 OPENING FILE ON UNIT   99:
 .\ibound_layer_1.ref                                                                                                                                                                                    



                     BOUNDARY ARRAY FOR LAYER   1
 READING ON UNIT   99 WITH FORMAT: (FREE)              

 AQUIFER HEAD WILL BE SET TO   999.00     AT ALL NO-FLOW NODES (IBOUND=0).

 OPENING FILE ON UNIT   99:
 .\strt_layer_1.ref                                                                                                                                                                                      



                       INITIAL HEAD FOR LAYER   1
 READING ON UNIT   99 WITH FORMAT: (FREE)              
 # OC package for MODFLOW-2000 generated by Flopy 3.5.0

 OUTPUT CONTROL IS SPECIFIED ONLY AT TIME STEPS FOR WHICH OUTPUT IS DESIRED
 HEAD PRINT FORMAT CODE IS   0    DRAWDOWN PRINT FORMAT CODE IS   0
 HEADS WILL BE SAVED ON UNIT   30    DRAWDOWNS WILL BE SAVED ON UNIT   31

 LPF -- LAYER-PROPERTY FLOW PACKAGE, VERSION 7, 5/2/2005
         INPUT READ FROM UNIT   11
 # LPF package for MODFLOW-2000 generated by Flopy 3.5.0
 CELL-BY-CELL FLOWS WILL BE SAVED ON UNIT   50
 HEAD AT CELLS THAT CONVERT TO DRY= -1.00000E+30
 No named parameters

   LAYER FLAGS:
 LAYER       LAYTYP        LAYAVG         CHANI        LAYVKA        LAYWET
 ---------------------------------------------------------------------------
    1             1             0     1.000E+00             0             0

   INTERPRETATION OF LAYER FLAGS:
                        INTERBLOCK     HORIZONTAL    DATA IN
         LAYER TYPE   TRANSMISSIVITY   ANISOTROPY   ARRAY VKA   WETTABILITY
 LAYER      (LAYTYP)      (LAYAVG)       (CHANI)      (LAYVKA)      (LAYWET)
 ---------------------------------------------------------------------------
    1   CONVERTIBLE      HARMONIC     1.000E+00    VERTICAL K  NON-WETTABLE

 WETTING CAPABILITY IS NOT ACTIVE IN ANY LAYER

 OPENING FILE ON UNIT   99:
 .\hk_Layer_1.ref                                                                                                                                                                                        



              HYD. COND. ALONG ROWS FOR LAYER   1
 READING ON UNIT   99 WITH FORMAT: (FREE)              

 OPENING FILE ON UNIT   99:
 .\vka1.ref                                                                                                                                                                                              



                VERTICAL HYD. COND. FOR LAYER   1
 READING ON UNIT   99 WITH FORMAT: (FREE)              

 OPENING FILE ON UNIT   99:
 .\ss_Layer_1.ref                                                                                                                                                                                        



                   SPECIFIC STORAGE FOR LAYER   1
 READING ON UNIT   99 WITH FORMAT: (FREE)              

 OPENING FILE ON UNIT   99:
 .\sy_Layer_1.ref                                                                                                                                                                                        



                     SPECIFIC YIELD FOR LAYER   1
 READING ON UNIT   99 WITH FORMAT: (FREE)              

 WEL -- WELL PACKAGE, VERSION 7, 5/2/2005 INPUT READ FROM UNIT   12
 # WEL package for MODFLOW-2000 generated by Flopy 3.5.0
 No named parameters
 MAXIMUM OF      3 ACTIVE WELLS AT ONE TIME
 CELL-BY-CELL FLOWS WILL BE SAVED ON UNIT   50
 AUXILIARY WELL VARIABLE: IFACE           


     0 Well parameters

 RCH -- RECHARGE PACKAGE, VERSION 7, 5/2/2005 INPUT READ FROM UNIT   18
 # RCH package for MODFLOW-2000 generated by Flopy 3.5.0
 No named parameters
 OPTION 3 -- RECHARGE TO HIGHEST ACTIVE NODE IN EACH VERTICAL COLUMN
 CELL-BY-CELL FLOWS WILL BE SAVED ON UNIT   50


     0 Recharge parameters

 PCG -- CONJUGATE-GRADIENT SOLUTION PACKAGE, VERSION 7, 5/2/2005
 # PCG package for MODFLOW-2000 generated by Flopy 3.5.0
 MAXIMUM OF    100 CALLS OF SOLUTION ROUTINE
 MAXIMUM OF     25 INTERNAL ITERATIONS PER CALL TO SOLUTION ROUTINE
 MATRIX PRECONDITIONING TYPE :    1
 IHCOFADD option -- When an active cell is surrounded by dry cells, convert
 the cell to dry only if storage and head-dependent boundary flow are 0.



                                    SOLUTION BY THE CONJUGATE-GRADIENT METHOD
                                   -------------------------------------------
                    MAXIMUM NUMBER OF CALLS TO PCG ROUTINE =      100
                        MAXIMUM ITERATIONS PER CALL TO PCG =       25
                               MATRIX PRECONDITIONING TYPE =        1
        RELAXATION FACTOR (ONLY USED WITH PRECOND. TYPE 1) =    0.10000E+01
 PARAMETER OF POLYNOMIAL PRECOND. = 2 (2) OR IS CALCULATED :        2
                         HEAD CHANGE CRITERION FOR CLOSURE =    0.10000E-02
                     RESIDUAL CHANGE CRITERION FOR CLOSURE =    0.10000E+01
            PCG HEAD AND RESIDUAL CHANGE PRINTOUT INTERVAL =        5
     PRINTING FROM SOLVER IS LIMITED(1) OR SUPPRESSED (>1) =        0
                            STEADY-STATE DAMPING PARAMETER =    0.10000E+01
                               TRANSIENT DAMPING PARAMETER =    0.10000E+01
1
                            STRESS PERIOD NO.    1, LENGTH =   1.000000    
                            -----------------------------------------------

                              NUMBER OF TIME STEPS =     1

                               MULTIPLIER FOR DELT =     1.200

                            INITIAL TIME STEP SIZE =   1.000000    

 OPENING FILE ON UNIT   99:
 .\WEL_0000.dat                                                                                                                                                                                          

 WELL NO.  LAYER   ROW   COL   STRESS RATE         IFACE           
 ------------------------------------------------------------------
      1      1      5      5       0.000           0.000    
      2      1     11      5       0.000           0.000    
      3      1      5      5       0.000           0.000    

      3 WELLS

 OPENING FILE ON UNIT   99:
 .\rech_0.ref                                                                                                                                                                                            



                           RECHARGE
 READING ON UNIT   99 WITH FORMAT: (FREE)              
 
 SOLVING FOR HEAD 


     7 CALLS TO PCG ROUTINE FOR TIME STEP   1 IN STRESS PERIOD    1
    51 TOTAL ITERATIONS

 MAXIMUM HEAD CHANGE FOR EACH ITERATION (1 INDICATES THE FIRST INNER ITERATION):

    HEAD CHANGE    HEAD CHANGE    HEAD CHANGE    HEAD CHANGE    HEAD CHANGE 
   LAYER,ROW,COL  LAYER,ROW,COL  LAYER,ROW,COL  LAYER,ROW,COL  LAYER,ROW,COL
 ---------------------------------------------------------------------------
  1  -106.1      0  -46.50      0  -24.33      0  -11.63      0  -6.517    
   (  1, 20,  6)  (  1, 11,  9)  (  1,  4,  9)  (  1,  2,  9)  (  1,  5,  1)
  0   3.007      0  -1.526      0  0.2974      0 -0.1511      0  0.7381E-01
   (  1, 17,  9)  (  1,  8,  1)  (  1, 17,  6)  (  1,  7,  4)  (  1, 15,  7)
  0 -0.2357E-01  0  0.9335E-02  0  0.1981E-02  0  0.9609E-03  0  0.2106E-03
   (  1, 20,  9)  (  1, 14,  8)  (  1, 18,  1)  (  1, 12,  9)  (  1, 16,  7)
  0 -0.1229E-03  1   6.283      0   3.802      0   1.857      0  0.5939    
   (  1, 17,  9)  (  1, 12,  5)  (  1,  9,  9)  (  1,  6,  9)  (  1,  4,  9)
  0  0.1530      0  0.5727E-01  0  0.3901E-01  0  0.1401E-01  0 -0.4320E-02
   (  1, 12,  3)  (  1, 10,  6)  (  1, 14,  3)  (  1, 20,  9)  (  1, 14,  8)
  0  0.1073E-02  0 -0.5966E-03  1  -1.111      0 -0.8318      0 -0.3743    
   (  1, 12,  1)  (  1, 17,  4)  (  1, 12,  6)  (  1, 10,  9)  (  1,  7,  9)
  0 -0.1087      0 -0.5454E-01  0 -0.2049E-01  0 -0.8245E-02  0  0.2782E-02
   (  1, 10,  6)  (  1, 14,  3)  (  1,  8,  7)  (  1,  7,  8)  (  1,  8,  2)
  0 -0.7259E-03  1  0.1280      0  0.9632E-01  0  0.3847E-01  0  0.1229E-01
   (  1, 16,  3)  (  1, 12,  6)  (  1, 10,  9)  (  1,  7,  9)  (  1, 10,  6)
  0  0.7254E-02  0  0.2514E-02  0  0.9682E-03  1 -0.1240E-01  0 -0.9317E-02
   (  1, 14,  3)  (  1,  8,  7)  (  1,  7,  8)  (  1, 11,  5)  (  1, 11,  9)
  0 -0.3364E-02  0 -0.1170E-02  0 -0.7730E-03  1  0.1065E-02  0  0.7327E-03
   (  1,  8,  9)  (  1, 10,  6)  (  1, 15,  4)  (  1, 11,  5)  (  1, 11,  9)
  1 -0.1850E-03
   (  1, 10,  7)

 MAXIMUM RESIDUAL FOR EACH ITERATION (1 INDICATES THE FIRST INNER ITERATION):

    RESIDUAL       RESIDUAL       RESIDUAL       RESIDUAL       RESIDUAL    
   LAYER,ROW,COL  LAYER,ROW,COL  LAYER,ROW,COL  LAYER,ROW,COL  LAYER,ROW,COL
 ---------------------------------------------------------------------------
  1  0.1729E+06  0  0.8231E+05  0 -0.6541E+05  0  0.3360E+05  0  0.1038E+05
   (  1, 20,  1)  (  1,  2,  4)  (  1, 20,  2)  (  1, 19,  2)  (  1, 19,  2)
  0  -7321.      0  -2644.      0   1366.      0   714.8      0  -223.5    
   (  1, 19,  3)  (  1,  2,  9)  (  1, 20,  9)  (  1, 20,  9)  (  1,  4,  8)
  0  -74.90      0  -16.06      0  -6.718      0  -2.105      0  -1.044    
   (  1,  3,  8)  (  1,  3,  8)  (  1, 18,  4)  (  1, 20,  9)  (  1, 20,  9)
  0 -0.5898      1   1549.      0  -1152.      0  -671.2      0   268.9    
   (  1, 20,  9)  (  1, 20,  9)  (  1, 18,  1)  (  1, 19,  1)  (  1, 19,  2)
  0  -118.3      0  -86.16      0  -35.39      0  -8.645      0  -2.407    
   (  1, 18,  2)  (  1, 20,  9)  (  1, 20,  9)  (  1,  4,  8)  (  1, 17,  3)
  0  0.9034      0  0.5620      1   320.6      0   270.6      0   127.0    
   (  1, 20,  9)  (  1, 20,  9)  (  1, 13,  1)  (  1, 17,  1)  (  1, 19,  1)
  0  -57.71      0   33.99      0   18.87      0   5.848      0   2.037    
   (  1, 19,  2)  (  1,  9,  8)  (  1, 20,  9)  (  1,  5,  8)  (  1, 20,  8)
  0  0.6485      1  -39.32      0  -29.50      0   16.51      0   7.091    
   (  1,  3,  2)  (  1, 13,  1)  (  1, 16,  1)  (  1,  8,  1)  (  1, 13,  9)
  0   4.059      0  -1.765      0  0.7100      1   4.198      0  -3.041    
   (  1, 12,  1)  (  1,  7,  8)  (  1,  8,  2)  (  1, 13,  1)  (  1, 15,  9)
  0  -1.771      0 -0.7546      0 -0.4347      1 -0.6255      0 -0.2781    
   (  1,  8,  1)  (  1, 13,  9)  (  1, 11,  1)  (  1, 12,  1)  (  1,  9,  9)
  1 -0.1258    
   (  1, 14,  1)



 OUTPUT CONTROL FOR STRESS PERIOD    1   TIME STEP    1
    SAVE HEAD FOR ALL LAYERS
    SAVE DRAWDOWN FOR ALL LAYERS
    SAVE BUDGET
    PRINT BUDGET
 UBUDSV SAVING "   CONSTANT HEAD" ON UNIT 50 AT TIME STEP  1, STRESS PERIOD    1
 UBUDSV SAVING "FLOW RIGHT FACE " ON UNIT 50 AT TIME STEP  1, STRESS PERIOD    1
 UBUDSV SAVING "FLOW FRONT FACE " ON UNIT 50 AT TIME STEP  1, STRESS PERIOD    1
 UBUDSV SAVING "           WELLS" ON UNIT 50 AT TIME STEP  1, STRESS PERIOD    1
 UBUDSV SAVING "        RECHARGE" ON UNIT 50 AT TIME STEP  1, STRESS PERIOD    1

 HEAD WILL BE SAVED ON UNIT   30 AT END OF TIME STEP    1, STRESS PERIOD    1

 DRAWDOWN WILL BE SAVED ON UNIT   31 AT END OF TIME STEP    1, STRESS PERIOD    1
1
  VOLUMETRIC BUDGET FOR ENTIRE MODEL AT END OF TIME STEP    1, STRESS PERIOD   1
  ------------------------------------------------------------------------------

     CUMULATIVE VOLUMES      L**3       RATES FOR THIS TIME STEP      L**3/T
     ------------------                 ------------------------

           IN:                                      IN:
           ---                                      ---
             STORAGE =           0.0000               STORAGE =           0.0000
       CONSTANT HEAD =           0.0000         CONSTANT HEAD =           0.0000
               WELLS =           0.0000                 WELLS =           0.0000
            RECHARGE =       47196.0000              RECHARGE =       47196.0000

            TOTAL IN =       47196.0000              TOTAL IN =       47196.0000

          OUT:                                     OUT:
          ----                                     ----
             STORAGE =           0.0000               STORAGE =           0.0000
       CONSTANT HEAD =       47196.0977         CONSTANT HEAD =       47196.0977
               WELLS =           0.0000                 WELLS =           0.0000
            RECHARGE =           0.0000              RECHARGE =           0.0000

           TOTAL OUT =       47196.0977             TOTAL OUT =       47196.0977

            IN - OUT =      -9.7656E-02              IN - OUT =      -9.7656E-02

 PERCENT DISCREPANCY =          -0.00     PERCENT DISCREPANCY =          -0.00






         TIME SUMMARY AT END OF TIME STEP    1 IN STRESS PERIOD    1
                    SECONDS     MINUTES      HOURS       DAYS        YEARS
                    -----------------------------------------------------------
   TIME STEP LENGTH  86400.      1440.0      24.000      1.0000     2.73785E-03
 STRESS PERIOD TIME  86400.      1440.0      24.000      1.0000     2.73785E-03
         TOTAL TIME  86400.      1440.0      24.000      1.0000     2.73785E-03
1
1
                            STRESS PERIOD NO.    2, LENGTH =   31.00000    
                            -----------------------------------------------

                              NUMBER OF TIME STEPS =     8

                               MULTIPLIER FOR DELT =     1.200

                            INITIAL TIME STEP SIZE =   1.878892    

 OPENING FILE ON UNIT   99:
 .\WEL_0001.dat                                                                                                                                                                                          

 WELL NO.  LAYER   ROW   COL   STRESS RATE         IFACE           
 ------------------------------------------------------------------
      1      1      5      5       0.000           0.000    
      2      1     11      5       0.000           0.000    
      3      1      5      5       0.000           0.000    

      3 WELLS

 OPENING FILE ON UNIT   99:
 .\rech_1.ref                                                                                                                                                                                            



                           RECHARGE
 READING ON UNIT   99 WITH FORMAT: (FREE)              
 
 SOLVING FOR HEAD 


     2 CALLS TO PCG ROUTINE FOR TIME STEP   1 IN STRESS PERIOD    2
     3 TOTAL ITERATIONS

 OUTPUT CONTROL FOR STRESS PERIOD    2   TIME STEP    1
    SAVE HEAD FOR ALL LAYERS
    SAVE DRAWDOWN FOR ALL LAYERS
    SAVE BUDGET
    PRINT BUDGET
 UBUDSV SAVING "         STORAGE" ON UNIT 50 AT TIME STEP  1, STRESS PERIOD    2
 UBUDSV SAVING "   CONSTANT HEAD" ON UNIT 50 AT TIME STEP  1, STRESS PERIOD    2
 UBUDSV SAVING "FLOW RIGHT FACE " ON UNIT 50 AT TIME STEP  1, STRESS PERIOD    2
 UBUDSV SAVING "FLOW FRONT FACE " ON UNIT 50 AT TIME STEP  1, STRESS PERIOD    2
 UBUDSV SAVING "           WELLS" ON UNIT 50 AT TIME STEP  1, STRESS PERIOD    2
 UBUDSV SAVING "        RECHARGE" ON UNIT 50 AT TIME STEP  1, STRESS PERIOD    2

 HEAD WILL BE SAVED ON UNIT   30 AT END OF TIME STEP    1, STRESS PERIOD    2

 DRAWDOWN WILL BE SAVED ON UNIT   31 AT END OF TIME STEP    1, STRESS PERIOD    2
1
  VOLUMETRIC BUDGET FOR ENTIRE MODEL AT END OF TIME STEP    1, STRESS PERIOD   2
  ------------------------------------------------------------------------------

     CUMULATIVE VOLUMES      L**3       RATES FOR THIS TIME STEP      L**3/T
     ------------------                 ------------------------

           IN:                                      IN:
           ---                                      ---
             STORAGE =        8406.3965               STORAGE =        4474.1250
       CONSTANT HEAD =           0.0000         CONSTANT HEAD =           0.0000
               WELLS =           0.0000                 WELLS =           0.0000
            RECHARGE =      127518.6172              RECHARGE =       42750.0000

            TOTAL IN =      135925.0156              TOTAL IN =       47224.1250

          OUT:                                     OUT:
          ----                                     ----
             STORAGE =           0.0000               STORAGE =           0.0000
       CONSTANT HEAD =      135802.3750         CONSTANT HEAD =       47158.8008
               WELLS =           0.0000                 WELLS =           0.0000
            RECHARGE =           0.0000              RECHARGE =           0.0000

           TOTAL OUT =      135802.3750             TOTAL OUT =       47158.8008

            IN - OUT =         122.6406              IN - OUT =          65.3242

 PERCENT DISCREPANCY =           0.09     PERCENT DISCREPANCY =           0.14






         TIME SUMMARY AT END OF TIME STEP    1 IN STRESS PERIOD    2
                    SECONDS     MINUTES      HOURS       DAYS        YEARS
                    -----------------------------------------------------------
   TIME STEP LENGTH 1.62336E+05  2705.6      45.093      1.8789     5.14413E-03
 STRESS PERIOD TIME 1.62336E+05  2705.6      45.093      1.8789     5.14413E-03
         TOTAL TIME 2.48736E+05  4145.6      69.093      2.8789     7.88198E-03
1
 
 SOLVING FOR HEAD 
     2 CALLS TO PCG ROUTINE FOR TIME STEP   2 IN STRESS PERIOD    2
     3 TOTAL ITERATIONS

 OUTPUT CONTROL FOR STRESS PERIOD    2   TIME STEP    2
    SAVE HEAD FOR ALL LAYERS
    SAVE DRAWDOWN FOR ALL LAYERS
    SAVE BUDGET
    PRINT BUDGET
 UBUDSV SAVING "         STORAGE" ON UNIT 50 AT TIME STEP  2, STRESS PERIOD    2
 UBUDSV SAVING "   CONSTANT HEAD" ON UNIT 50 AT TIME STEP  2, STRESS PERIOD    2
 UBUDSV SAVING "FLOW RIGHT FACE " ON UNIT 50 AT TIME STEP  2, STRESS PERIOD    2
 UBUDSV SAVING "FLOW FRONT FACE " ON UNIT 50 AT TIME STEP  2, STRESS PERIOD    2
 UBUDSV SAVING "           WELLS" ON UNIT 50 AT TIME STEP  2, STRESS PERIOD    2
 UBUDSV SAVING "        RECHARGE" ON UNIT 50 AT TIME STEP  2, STRESS PERIOD    2

 HEAD WILL BE SAVED ON UNIT   30 AT END OF TIME STEP    2, STRESS PERIOD    2

 DRAWDOWN WILL BE SAVED ON UNIT   31 AT END OF TIME STEP    2, STRESS PERIOD    2
1
  VOLUMETRIC BUDGET FOR ENTIRE MODEL AT END OF TIME STEP    2, STRESS PERIOD   2
  ------------------------------------------------------------------------------

     CUMULATIVE VOLUMES      L**3       RATES FOR THIS TIME STEP      L**3/T
     ------------------                 ------------------------

           IN:                                      IN:
           ---                                      ---
             STORAGE =       18417.2734               STORAGE =        4440.0625
       CONSTANT HEAD =           0.0000         CONSTANT HEAD =           0.0000
               WELLS =           0.0000                 WELLS =           0.0000
            RECHARGE =      223905.7656              RECHARGE =       42750.0000

            TOTAL IN =      242323.0312              TOTAL IN =       47190.0625

          OUT:                                     OUT:
          ----                                     ----
             STORAGE =           0.0000               STORAGE =           0.0000
       CONSTANT HEAD =      242036.0312         CONSTANT HEAD =       47117.1602
               WELLS =           0.0000                 WELLS =           0.0000
            RECHARGE =           0.0000              RECHARGE =           0.0000

           TOTAL OUT =      242036.0312             TOTAL OUT =       47117.1602

            IN - OUT =         287.0000              IN - OUT =          72.9023

 PERCENT DISCREPANCY =           0.12     PERCENT DISCREPANCY =           0.15






         TIME SUMMARY AT END OF TIME STEP    2 IN STRESS PERIOD    2
                    SECONDS     MINUTES      HOURS       DAYS        YEARS
                    -----------------------------------------------------------
   TIME STEP LENGTH 1.94804E+05  3246.7      54.112      2.2547     6.17295E-03
 STRESS PERIOD TIME 3.57140E+05  5952.3      99.205      4.1336     1.13171E-02
         TOTAL TIME 4.43540E+05  7392.3      123.21      5.1336     1.40549E-02
1
 
 SOLVING FOR HEAD 
     2 CALLS TO PCG ROUTINE FOR TIME STEP   3 IN STRESS PERIOD    2
     3 TOTAL ITERATIONS

 OUTPUT CONTROL FOR STRESS PERIOD    2   TIME STEP    3
    SAVE HEAD FOR ALL LAYERS
    SAVE DRAWDOWN FOR ALL LAYERS
    SAVE BUDGET
    PRINT BUDGET
 UBUDSV SAVING "         STORAGE" ON UNIT 50 AT TIME STEP  3, STRESS PERIOD    2
 UBUDSV SAVING "   CONSTANT HEAD" ON UNIT 50 AT TIME STEP  3, STRESS PERIOD    2
 UBUDSV SAVING "FLOW RIGHT FACE " ON UNIT 50 AT TIME STEP  3, STRESS PERIOD    2
 UBUDSV SAVING "FLOW FRONT FACE " ON UNIT 50 AT TIME STEP  3, STRESS PERIOD    2
 UBUDSV SAVING "           WELLS" ON UNIT 50 AT TIME STEP  3, STRESS PERIOD    2
 UBUDSV SAVING "        RECHARGE" ON UNIT 50 AT TIME STEP  3, STRESS PERIOD    2

 HEAD WILL BE SAVED ON UNIT   30 AT END OF TIME STEP    3, STRESS PERIOD    2

 DRAWDOWN WILL BE SAVED ON UNIT   31 AT END OF TIME STEP    3, STRESS PERIOD    2
1
  VOLUMETRIC BUDGET FOR ENTIRE MODEL AT END OF TIME STEP    3, STRESS PERIOD   2
  ------------------------------------------------------------------------------

     CUMULATIVE VOLUMES      L**3       RATES FOR THIS TIME STEP      L**3/T
     ------------------                 ------------------------

           IN:                                      IN:
           ---                                      ---
             STORAGE =       30140.1484               STORAGE =        4332.8125
       CONSTANT HEAD =           0.0000         CONSTANT HEAD =           0.0000
               WELLS =           0.0000                 WELLS =           0.0000
            RECHARGE =      339570.3438              RECHARGE =       42750.0000

            TOTAL IN =      369710.5000              TOTAL IN =       47082.8125

          OUT:                                     OUT:
          ----                                     ----
             STORAGE =           0.0000               STORAGE =           0.0000
       CONSTANT HEAD =      369395.5312         CONSTANT HEAD =       47072.4805
               WELLS =           0.0000                 WELLS =           0.0000
            RECHARGE =           0.0000              RECHARGE =           0.0000

           TOTAL OUT =      369395.5312             TOTAL OUT =       47072.4805

            IN - OUT =         314.9688              IN - OUT =          10.3320

 PERCENT DISCREPANCY =           0.09     PERCENT DISCREPANCY =           0.02






         TIME SUMMARY AT END OF TIME STEP    3 IN STRESS PERIOD    2
                    SECONDS     MINUTES      HOURS       DAYS        YEARS
                    -----------------------------------------------------------
   TIME STEP LENGTH 2.33764E+05  3896.1      64.935      2.7056     7.40754E-03
 STRESS PERIOD TIME 5.90904E+05  9848.4      164.14      6.8392     1.87246E-02
         TOTAL TIME 6.77304E+05  11288.      188.14      7.8392     2.14625E-02
1
 
 SOLVING FOR HEAD 
     2 CALLS TO PCG ROUTINE FOR TIME STEP   4 IN STRESS PERIOD    2
     3 TOTAL ITERATIONS

 OUTPUT CONTROL FOR STRESS PERIOD    2   TIME STEP    4
    SAVE HEAD FOR ALL LAYERS
    SAVE DRAWDOWN FOR ALL LAYERS
    SAVE BUDGET
    PRINT BUDGET
 UBUDSV SAVING "         STORAGE" ON UNIT 50 AT TIME STEP  4, STRESS PERIOD    2
 UBUDSV SAVING "   CONSTANT HEAD" ON UNIT 50 AT TIME STEP  4, STRESS PERIOD    2
 UBUDSV SAVING "FLOW RIGHT FACE " ON UNIT 50 AT TIME STEP  4, STRESS PERIOD    2
 UBUDSV SAVING "FLOW FRONT FACE " ON UNIT 50 AT TIME STEP  4, STRESS PERIOD    2
 UBUDSV SAVING "           WELLS" ON UNIT 50 AT TIME STEP  4, STRESS PERIOD    2
 UBUDSV SAVING "        RECHARGE" ON UNIT 50 AT TIME STEP  4, STRESS PERIOD    2

 HEAD WILL BE SAVED ON UNIT   30 AT END OF TIME STEP    4, STRESS PERIOD    2

 DRAWDOWN WILL BE SAVED ON UNIT   31 AT END OF TIME STEP    4, STRESS PERIOD    2
1
  VOLUMETRIC BUDGET FOR ENTIRE MODEL AT END OF TIME STEP    4, STRESS PERIOD   2
  ------------------------------------------------------------------------------

     CUMULATIVE VOLUMES      L**3       RATES FOR THIS TIME STEP      L**3/T
     ------------------                 ------------------------

           IN:                                      IN:
           ---                                      ---
             STORAGE =       44055.8164               STORAGE =        4286.0625
       CONSTANT HEAD =           0.0000         CONSTANT HEAD =           0.0000
               WELLS =           0.0000                 WELLS =           0.0000
            RECHARGE =      478367.8438              RECHARGE =       42750.0000

            TOTAL IN =      522423.6562              TOTAL IN =       47036.0625

          OUT:                                     OUT:
          ----                                     ----
             STORAGE =           0.0000               STORAGE =           0.0000
       CONSTANT HEAD =      522063.6562         CONSTANT HEAD =       47022.1875
               WELLS =           0.0000                 WELLS =           0.0000
            RECHARGE =           0.0000              RECHARGE =           0.0000

           TOTAL OUT =      522063.6562             TOTAL OUT =       47022.1875

            IN - OUT =         360.0000              IN - OUT =          13.8750

 PERCENT DISCREPANCY =           0.07     PERCENT DISCREPANCY =           0.03






         TIME SUMMARY AT END OF TIME STEP    4 IN STRESS PERIOD    2
                    SECONDS     MINUTES      HOURS       DAYS        YEARS
                    -----------------------------------------------------------
   TIME STEP LENGTH 2.80517E+05  4675.3      77.921      3.2467     8.88905E-03
 STRESS PERIOD TIME 8.71421E+05  14524.      242.06      10.086     2.76137E-02
         TOTAL TIME 9.57821E+05  15964.      266.06      11.086     3.03515E-02
1
 
 SOLVING FOR HEAD 
     2 CALLS TO PCG ROUTINE FOR TIME STEP   5 IN STRESS PERIOD    2
     3 TOTAL ITERATIONS

 MAXIMUM HEAD CHANGE FOR EACH ITERATION (1 INDICATES THE FIRST INNER ITERATION):

    HEAD CHANGE    HEAD CHANGE    HEAD CHANGE    HEAD CHANGE    HEAD CHANGE 
   LAYER,ROW,COL  LAYER,ROW,COL  LAYER,ROW,COL  LAYER,ROW,COL  LAYER,ROW,COL
 ---------------------------------------------------------------------------
  1 -0.4061E-02  0  0.3510E-04  1 -0.1978E-04
   (  1,  7,  6)  (  1, 20,  9)  (  1, 20,  5)

 MAXIMUM RESIDUAL FOR EACH ITERATION (1 INDICATES THE FIRST INNER ITERATION):

    RESIDUAL       RESIDUAL       RESIDUAL       RESIDUAL       RESIDUAL    
   LAYER,ROW,COL  LAYER,ROW,COL  LAYER,ROW,COL  LAYER,ROW,COL  LAYER,ROW,COL
 ---------------------------------------------------------------------------
  1 -0.2988      0  0.3341E-02  1 -0.2856E-02
   (  1, 20,  9)  (  1, 19,  2)  (  1, 20,  2)



 OUTPUT CONTROL FOR STRESS PERIOD    2   TIME STEP    5
    SAVE HEAD FOR ALL LAYERS
    SAVE DRAWDOWN FOR ALL LAYERS
    SAVE BUDGET
    PRINT BUDGET
 UBUDSV SAVING "         STORAGE" ON UNIT 50 AT TIME STEP  5, STRESS PERIOD    2
 UBUDSV SAVING "   CONSTANT HEAD" ON UNIT 50 AT TIME STEP  5, STRESS PERIOD    2
 UBUDSV SAVING "FLOW RIGHT FACE " ON UNIT 50 AT TIME STEP  5, STRESS PERIOD    2
 UBUDSV SAVING "FLOW FRONT FACE " ON UNIT 50 AT TIME STEP  5, STRESS PERIOD    2
 UBUDSV SAVING "           WELLS" ON UNIT 50 AT TIME STEP  5, STRESS PERIOD    2
 UBUDSV SAVING "        RECHARGE" ON UNIT 50 AT TIME STEP  5, STRESS PERIOD    2

 HEAD WILL BE SAVED ON UNIT   30 AT END OF TIME STEP    5, STRESS PERIOD    2

 DRAWDOWN WILL BE SAVED ON UNIT   31 AT END OF TIME STEP    5, STRESS PERIOD    2
1
  VOLUMETRIC BUDGET FOR ENTIRE MODEL AT END OF TIME STEP    5, STRESS PERIOD   2
  ------------------------------------------------------------------------------

     CUMULATIVE VOLUMES      L**3       RATES FOR THIS TIME STEP      L**3/T
     ------------------                 ------------------------

           IN:                                      IN:
           ---                                      ---
             STORAGE =       60397.8828               STORAGE =        4194.5000
       CONSTANT HEAD =           0.0000         CONSTANT HEAD =           0.0000
               WELLS =           0.0000                 WELLS =           0.0000
            RECHARGE =      644924.8750              RECHARGE =       42750.0000

            TOTAL IN =      705322.7500              TOTAL IN =       46944.5000

          OUT:                                     OUT:
          ----                                     ----
             STORAGE =           0.0000               STORAGE =           0.0000
       CONSTANT HEAD =      705054.6875         CONSTANT HEAD =       46968.1016
               WELLS =           0.0000                 WELLS =           0.0000
            RECHARGE =           0.0000              RECHARGE =           0.0000

           TOTAL OUT =      705054.6875             TOTAL OUT =       46968.1016

            IN - OUT =         268.0625              IN - OUT =         -23.6016

 PERCENT DISCREPANCY =           0.04     PERCENT DISCREPANCY =          -0.05






         TIME SUMMARY AT END OF TIME STEP    5 IN STRESS PERIOD    2
                    SECONDS     MINUTES      HOURS       DAYS        YEARS
                    -----------------------------------------------------------
   TIME STEP LENGTH 3.36620E+05  5610.3      93.506      3.8961     1.06669E-02
 STRESS PERIOD TIME 1.20804E+06  20134.      335.57      13.982     3.82805E-02
         TOTAL TIME 1.29444E+06  21574.      359.57      14.982     4.10184E-02
1
 
 SOLVING FOR HEAD 
     2 CALLS TO PCG ROUTINE FOR TIME STEP   6 IN STRESS PERIOD    2
     3 TOTAL ITERATIONS

 OUTPUT CONTROL FOR STRESS PERIOD    2   TIME STEP    6
    SAVE HEAD FOR ALL LAYERS
    SAVE DRAWDOWN FOR ALL LAYERS
    SAVE BUDGET
    PRINT BUDGET
 UBUDSV SAVING "         STORAGE" ON UNIT 50 AT TIME STEP  6, STRESS PERIOD    2
 UBUDSV SAVING "   CONSTANT HEAD" ON UNIT 50 AT TIME STEP  6, STRESS PERIOD    2
 UBUDSV SAVING "FLOW RIGHT FACE " ON UNIT 50 AT TIME STEP  6, STRESS PERIOD    2
 UBUDSV SAVING "FLOW FRONT FACE " ON UNIT 50 AT TIME STEP  6, STRESS PERIOD    2
 UBUDSV SAVING "           WELLS" ON UNIT 50 AT TIME STEP  6, STRESS PERIOD    2
 UBUDSV SAVING "        RECHARGE" ON UNIT 50 AT TIME STEP  6, STRESS PERIOD    2

 HEAD WILL BE SAVED ON UNIT   30 AT END OF TIME STEP    6, STRESS PERIOD    2

 DRAWDOWN WILL BE SAVED ON UNIT   31 AT END OF TIME STEP    6, STRESS PERIOD    2
1
  VOLUMETRIC BUDGET FOR ENTIRE MODEL AT END OF TIME STEP    6, STRESS PERIOD   2
  ------------------------------------------------------------------------------

     CUMULATIVE VOLUMES      L**3       RATES FOR THIS TIME STEP      L**3/T
     ------------------                 ------------------------

           IN:                                      IN:
           ---                                      ---
             STORAGE =       79749.1797               STORAGE =        4139.0625
       CONSTANT HEAD =           0.0000         CONSTANT HEAD =           0.0000
               WELLS =           0.0000                 WELLS =           0.0000
            RECHARGE =      844793.3125              RECHARGE =       42750.0000

            TOTAL IN =      924542.5000              TOTAL IN =       46889.0625

          OUT:                                     OUT:
          ----                                     ----
             STORAGE =           0.0000               STORAGE =           0.0000
       CONSTANT HEAD =      924363.8750         CONSTANT HEAD =       46908.1992
               WELLS =           0.0000                 WELLS =           0.0000
            RECHARGE =           0.0000              RECHARGE =           0.0000

           TOTAL OUT =      924363.8750             TOTAL OUT =       46908.1992

            IN - OUT =         178.6250              IN - OUT =         -19.1367

 PERCENT DISCREPANCY =           0.02     PERCENT DISCREPANCY =          -0.04






         TIME SUMMARY AT END OF TIME STEP    6 IN STRESS PERIOD    2
                    SECONDS     MINUTES      HOURS       DAYS        YEARS
                    -----------------------------------------------------------
   TIME STEP LENGTH 4.03945E+05  6732.4      112.21      4.6753     1.28002E-02
 STRESS PERIOD TIME 1.61199E+06  26866.      447.77      18.657     5.10808E-02
         TOTAL TIME 1.69839E+06  28306.      471.77      19.657     5.38186E-02
1
 
 SOLVING FOR HEAD 
     2 CALLS TO PCG ROUTINE FOR TIME STEP   7 IN STRESS PERIOD    2
     3 TOTAL ITERATIONS

 OUTPUT CONTROL FOR STRESS PERIOD    2   TIME STEP    7
    SAVE HEAD FOR ALL LAYERS
    SAVE DRAWDOWN FOR ALL LAYERS
    SAVE BUDGET
    PRINT BUDGET
 UBUDSV SAVING "         STORAGE" ON UNIT 50 AT TIME STEP  7, STRESS PERIOD    2
 UBUDSV SAVING "   CONSTANT HEAD" ON UNIT 50 AT TIME STEP  7, STRESS PERIOD    2
 UBUDSV SAVING "FLOW RIGHT FACE " ON UNIT 50 AT TIME STEP  7, STRESS PERIOD    2
 UBUDSV SAVING "FLOW FRONT FACE " ON UNIT 50 AT TIME STEP  7, STRESS PERIOD    2
 UBUDSV SAVING "           WELLS" ON UNIT 50 AT TIME STEP  7, STRESS PERIOD    2
 UBUDSV SAVING "        RECHARGE" ON UNIT 50 AT TIME STEP  7, STRESS PERIOD    2

 HEAD WILL BE SAVED ON UNIT   30 AT END OF TIME STEP    7, STRESS PERIOD    2

 DRAWDOWN WILL BE SAVED ON UNIT   31 AT END OF TIME STEP    7, STRESS PERIOD    2
1
  VOLUMETRIC BUDGET FOR ENTIRE MODEL AT END OF TIME STEP    7, STRESS PERIOD   2
  ------------------------------------------------------------------------------

     CUMULATIVE VOLUMES      L**3       RATES FOR THIS TIME STEP      L**3/T
     ------------------                 ------------------------

           IN:                                      IN:
           ---                                      ---
             STORAGE =      102455.2812               STORAGE =        4047.1875
       CONSTANT HEAD =           0.0000         CONSTANT HEAD =           0.0000
               WELLS =           0.0000                 WELLS =           0.0000
            RECHARGE =     1084635.5000              RECHARGE =       42750.0000

            TOTAL IN =     1187090.7500              TOTAL IN =       46797.1875

          OUT:                                     OUT:
          ----                                     ----
             STORAGE =           0.0000               STORAGE =           0.0000
       CONSTANT HEAD =     1187170.3750         CONSTANT HEAD =       46843.2227
               WELLS =           0.0000                 WELLS =           0.0000
            RECHARGE =           0.0000              RECHARGE =           0.0000

           TOTAL OUT =     1187170.3750             TOTAL OUT =       46843.2227

            IN - OUT =         -79.6250              IN - OUT =         -46.0352

 PERCENT DISCREPANCY =          -0.01     PERCENT DISCREPANCY =          -0.10






         TIME SUMMARY AT END OF TIME STEP    7 IN STRESS PERIOD    2
                    SECONDS     MINUTES      HOURS       DAYS        YEARS
                    -----------------------------------------------------------
   TIME STEP LENGTH 4.84734E+05  8078.9      134.65      5.6103     1.53603E-02
 STRESS PERIOD TIME 2.09672E+06  34945.      582.42      24.268     6.64410E-02
         TOTAL TIME 2.18312E+06  36385.      606.42      25.268     6.91789E-02
1
 
 SOLVING FOR HEAD 
     2 CALLS TO PCG ROUTINE FOR TIME STEP   8 IN STRESS PERIOD    2
     3 TOTAL ITERATIONS

 MAXIMUM HEAD CHANGE FOR EACH ITERATION (1 INDICATES THE FIRST INNER ITERATION):

    HEAD CHANGE    HEAD CHANGE    HEAD CHANGE    HEAD CHANGE    HEAD CHANGE 
   LAYER,ROW,COL  LAYER,ROW,COL  LAYER,ROW,COL  LAYER,ROW,COL  LAYER,ROW,COL
 ---------------------------------------------------------------------------
  1 -0.6916E-02  0  0.9854E-04  1 -0.4586E-04
   (  1, 13,  9)  (  1, 20,  9)  (  1, 20,  5)

 MAXIMUM RESIDUAL FOR EACH ITERATION (1 INDICATES THE FIRST INNER ITERATION):

    RESIDUAL       RESIDUAL       RESIDUAL       RESIDUAL       RESIDUAL    
   LAYER,ROW,COL  LAYER,ROW,COL  LAYER,ROW,COL  LAYER,ROW,COL  LAYER,ROW,COL
 ---------------------------------------------------------------------------
  1 -0.5610      0  0.1522E-01  1 -0.8992E-02
   (  1, 20,  9)  (  1, 19,  2)  (  1, 20,  2)



 OUTPUT CONTROL FOR STRESS PERIOD    2   TIME STEP    8
    SAVE HEAD FOR ALL LAYERS
    SAVE DRAWDOWN FOR ALL LAYERS
    SAVE BUDGET
    PRINT BUDGET
 UBUDSV SAVING "         STORAGE" ON UNIT 50 AT TIME STEP  8, STRESS PERIOD    2
 UBUDSV SAVING "   CONSTANT HEAD" ON UNIT 50 AT TIME STEP  8, STRESS PERIOD    2
 UBUDSV SAVING "FLOW RIGHT FACE " ON UNIT 50 AT TIME STEP  8, STRESS PERIOD    2
 UBUDSV SAVING "FLOW FRONT FACE " ON UNIT 50 AT TIME STEP  8, STRESS PERIOD    2
 UBUDSV SAVING "           WELLS" ON UNIT 50 AT TIME STEP  8, STRESS PERIOD    2
 UBUDSV SAVING "        RECHARGE" ON UNIT 50 AT TIME STEP  8, STRESS PERIOD    2

 HEAD WILL BE SAVED ON UNIT   30 AT END OF TIME STEP    8, STRESS PERIOD    2

 DRAWDOWN WILL BE SAVED ON UNIT   31 AT END OF TIME STEP    8, STRESS PERIOD    2
1
  VOLUMETRIC BUDGET FOR ENTIRE MODEL AT END OF TIME STEP    8, STRESS PERIOD   2
  ------------------------------------------------------------------------------

     CUMULATIVE VOLUMES      L**3       RATES FOR THIS TIME STEP      L**3/T
     ------------------                 ------------------------

           IN:                                      IN:
           ---                                      ---
             STORAGE =      129413.9609               STORAGE =        4004.3125
       CONSTANT HEAD =           0.0000         CONSTANT HEAD =           0.0000
               WELLS =           0.0000                 WELLS =           0.0000
            RECHARGE =     1372446.0000              RECHARGE =       42750.0000

            TOTAL IN =     1501860.0000              TOTAL IN =       46754.3125

          OUT:                                     OUT:
          ----                                     ----
             STORAGE =           0.0000               STORAGE =           0.0000
       CONSTANT HEAD =     1502055.8750         CONSTANT HEAD =       46771.5781
               WELLS =           0.0000                 WELLS =           0.0000
            RECHARGE =           0.0000              RECHARGE =           0.0000

           TOTAL OUT =     1502055.8750             TOTAL OUT =       46771.5781

            IN - OUT =        -195.8750              IN - OUT =         -17.2656

 PERCENT DISCREPANCY =          -0.01     PERCENT DISCREPANCY =          -0.04






         TIME SUMMARY AT END OF TIME STEP    8 IN STRESS PERIOD    2
                    SECONDS     MINUTES      HOURS       DAYS        YEARS
                    -----------------------------------------------------------
   TIME STEP LENGTH 5.81680E+05  9694.7      161.58      6.7324     1.84323E-02
 STRESS PERIOD TIME 2.67840E+06  44640.      744.00      31.000     8.48734E-02
         TOTAL TIME 2.76480E+06  46080.      768.00      32.000     8.76112E-02
1
1
                            STRESS PERIOD NO.    3, LENGTH =   28.00000    
                            -----------------------------------------------

                              NUMBER OF TIME STEPS =     8

                               MULTIPLIER FOR DELT =     1.200

                            INITIAL TIME STEP SIZE =   1.697063    

 OPENING FILE ON UNIT   99:
 .\WEL_0002.dat                                                                                                                                                                                          

 WELL NO.  LAYER   ROW   COL   STRESS RATE         IFACE           
 ------------------------------------------------------------------
      1      1      5      5       0.000           0.000    
      2      1     11      5       0.000           0.000    
      3      1      5      5       0.000           0.000    

      3 WELLS

 OPENING FILE ON UNIT   99:
 .\rech_2.ref                                                                                                                                                                                            



                           RECHARGE
 READING ON UNIT   99 WITH FORMAT: (FREE)              
 
 SOLVING FOR HEAD 


     2 CALLS TO PCG ROUTINE FOR TIME STEP   1 IN STRESS PERIOD    3
     3 TOTAL ITERATIONS

 OUTPUT CONTROL FOR STRESS PERIOD    3   TIME STEP    1
    SAVE HEAD FOR ALL LAYERS
    SAVE DRAWDOWN FOR ALL LAYERS
    SAVE BUDGET
    PRINT BUDGET
 UBUDSV SAVING "         STORAGE" ON UNIT 50 AT TIME STEP  1, STRESS PERIOD    3
 UBUDSV SAVING "   CONSTANT HEAD" ON UNIT 50 AT TIME STEP  1, STRESS PERIOD    3
 UBUDSV SAVING "FLOW RIGHT FACE " ON UNIT 50 AT TIME STEP  1, STRESS PERIOD    3
 UBUDSV SAVING "FLOW FRONT FACE " ON UNIT 50 AT TIME STEP  1, STRESS PERIOD    3
 UBUDSV SAVING "           WELLS" ON UNIT 50 AT TIME STEP  1, STRESS PERIOD    3
 UBUDSV SAVING "        RECHARGE" ON UNIT 50 AT TIME STEP  1, STRESS PERIOD    3

 HEAD WILL BE SAVED ON UNIT   30 AT END OF TIME STEP    1, STRESS PERIOD    3

 DRAWDOWN WILL BE SAVED ON UNIT   31 AT END OF TIME STEP    1, STRESS PERIOD    3
1
  VOLUMETRIC BUDGET FOR ENTIRE MODEL AT END OF TIME STEP    1, STRESS PERIOD   3
  ------------------------------------------------------------------------------

     CUMULATIVE VOLUMES      L**3       RATES FOR THIS TIME STEP      L**3/T
     ------------------                 ------------------------

           IN:                                      IN:
           ---                                      ---
             STORAGE =      129413.9609               STORAGE =           0.0000
       CONSTANT HEAD =           0.0000         CONSTANT HEAD =           0.0000
               WELLS =           0.0000                 WELLS =           0.0000
            RECHARGE =     1590094.3750              RECHARGE =      128250.0000

            TOTAL IN =     1719508.3750              TOTAL IN =      128250.0000

          OUT:                                     OUT:
          ----                                     ----
             STORAGE =      137190.6094               STORAGE =       80840.0000
       CONSTANT HEAD =     1582484.0000         CONSTANT HEAD =       47392.5195
               WELLS =           0.0000                 WELLS =           0.0000
            RECHARGE =           0.0000              RECHARGE =           0.0000

           TOTAL OUT =     1719674.6250             TOTAL OUT =      128232.5156

            IN - OUT =        -166.2500              IN - OUT =          17.4844

 PERCENT DISCREPANCY =          -0.01     PERCENT DISCREPANCY =           0.01






         TIME SUMMARY AT END OF TIME STEP    1 IN STRESS PERIOD    3
                    SECONDS     MINUTES      HOURS       DAYS        YEARS
                    -----------------------------------------------------------
   TIME STEP LENGTH 1.46626E+05  2443.8      40.730      1.6971     4.64631E-03
 STRESS PERIOD TIME 1.46626E+05  2443.8      40.730      1.6971     4.64631E-03
         TOTAL TIME 2.91143E+06  48524.      808.73      33.697     9.22575E-02
1
 
 SOLVING FOR HEAD 
     2 CALLS TO PCG ROUTINE FOR TIME STEP   2 IN STRESS PERIOD    3
     3 TOTAL ITERATIONS

 OUTPUT CONTROL FOR STRESS PERIOD    3   TIME STEP    2
    SAVE HEAD FOR ALL LAYERS
    SAVE DRAWDOWN FOR ALL LAYERS
    SAVE BUDGET
    PRINT BUDGET
 UBUDSV SAVING "         STORAGE" ON UNIT 50 AT TIME STEP  2, STRESS PERIOD    3
 UBUDSV SAVING "   CONSTANT HEAD" ON UNIT 50 AT TIME STEP  2, STRESS PERIOD    3
 UBUDSV SAVING "FLOW RIGHT FACE " ON UNIT 50 AT TIME STEP  2, STRESS PERIOD    3
 UBUDSV SAVING "FLOW FRONT FACE " ON UNIT 50 AT TIME STEP  2, STRESS PERIOD    3
 UBUDSV SAVING "           WELLS" ON UNIT 50 AT TIME STEP  2, STRESS PERIOD    3
 UBUDSV SAVING "        RECHARGE" ON UNIT 50 AT TIME STEP  2, STRESS PERIOD    3

 HEAD WILL BE SAVED ON UNIT   30 AT END OF TIME STEP    2, STRESS PERIOD    3

 DRAWDOWN WILL BE SAVED ON UNIT   31 AT END OF TIME STEP    2, STRESS PERIOD    3
1
  VOLUMETRIC BUDGET FOR ENTIRE MODEL AT END OF TIME STEP    2, STRESS PERIOD   3
  ------------------------------------------------------------------------------

     CUMULATIVE VOLUMES      L**3       RATES FOR THIS TIME STEP      L**3/T
     ------------------                 ------------------------

           IN:                                      IN:
           ---                                      ---
             STORAGE =      129413.9609               STORAGE =           0.0000
       CONSTANT HEAD =           0.0000         CONSTANT HEAD =           0.0000
               WELLS =           0.0000                 WELLS =           0.0000
            RECHARGE =     1851272.5000              RECHARGE =      128250.0000

            TOTAL IN =     1980686.5000              TOTAL IN =      128250.0000

          OUT:                                     OUT:
          ----                                     ----
             STORAGE =      300358.4375               STORAGE =       80122.6250
       CONSTANT HEAD =     1680417.0000         CONSTANT HEAD =       48089.4180
               WELLS =           0.0000                 WELLS =           0.0000
            RECHARGE =           0.0000              RECHARGE =           0.0000

           TOTAL OUT =     1980775.5000             TOTAL OUT =      128212.0469

            IN - OUT =         -89.0000              IN - OUT =          37.9531

 PERCENT DISCREPANCY =          -0.00     PERCENT DISCREPANCY =           0.03






         TIME SUMMARY AT END OF TIME STEP    2 IN STRESS PERIOD    3
                    SECONDS     MINUTES      HOURS       DAYS        YEARS
                    -----------------------------------------------------------
   TIME STEP LENGTH 1.75952E+05  2932.5      48.875      2.0365     5.57557E-03
 STRESS PERIOD TIME 3.22578E+05  5376.3      89.605      3.7335     1.02219E-02
         TOTAL TIME 3.08738E+06  51456.      857.60      35.734     9.78331E-02
1
 
 SOLVING FOR HEAD 
     2 CALLS TO PCG ROUTINE FOR TIME STEP   3 IN STRESS PERIOD    3
     3 TOTAL ITERATIONS

 OUTPUT CONTROL FOR STRESS PERIOD    3   TIME STEP    3
    SAVE HEAD FOR ALL LAYERS
    SAVE DRAWDOWN FOR ALL LAYERS
    SAVE BUDGET
    PRINT BUDGET
 UBUDSV SAVING "         STORAGE" ON UNIT 50 AT TIME STEP  3, STRESS PERIOD    3
 UBUDSV SAVING "   CONSTANT HEAD" ON UNIT 50 AT TIME STEP  3, STRESS PERIOD    3
 UBUDSV SAVING "FLOW RIGHT FACE " ON UNIT 50 AT TIME STEP  3, STRESS PERIOD    3
 UBUDSV SAVING "FLOW FRONT FACE " ON UNIT 50 AT TIME STEP  3, STRESS PERIOD    3
 UBUDSV SAVING "           WELLS" ON UNIT 50 AT TIME STEP  3, STRESS PERIOD    3
 UBUDSV SAVING "        RECHARGE" ON UNIT 50 AT TIME STEP  3, STRESS PERIOD    3

 HEAD WILL BE SAVED ON UNIT   30 AT END OF TIME STEP    3, STRESS PERIOD    3

 DRAWDOWN WILL BE SAVED ON UNIT   31 AT END OF TIME STEP    3, STRESS PERIOD    3
1
  VOLUMETRIC BUDGET FOR ENTIRE MODEL AT END OF TIME STEP    3, STRESS PERIOD   3
  ------------------------------------------------------------------------------

     CUMULATIVE VOLUMES      L**3       RATES FOR THIS TIME STEP      L**3/T
     ------------------                 ------------------------

           IN:                                      IN:
           ---                                      ---
             STORAGE =      129413.9609               STORAGE =           0.0000
       CONSTANT HEAD =           0.0000         CONSTANT HEAD =           0.0000
               WELLS =           0.0000                 WELLS =           0.0000
            RECHARGE =     2164686.2500              RECHARGE =      128250.0000

            TOTAL IN =     2294100.2500              TOTAL IN =      128250.0000

          OUT:                                     OUT:
          ----                                     ----
             STORAGE =      494429.1875               STORAGE =       79414.4375
       CONSTANT HEAD =     1799835.1250         CONSTANT HEAD =       48866.3398
               WELLS =           0.0000                 WELLS =           0.0000
            RECHARGE =           0.0000              RECHARGE =           0.0000

           TOTAL OUT =     2294264.2500             TOTAL OUT =      128280.7812

            IN - OUT =        -164.0000              IN - OUT =         -30.7812

 PERCENT DISCREPANCY =          -0.01     PERCENT DISCREPANCY =          -0.02






         TIME SUMMARY AT END OF TIME STEP    3 IN STRESS PERIOD    3
                    SECONDS     MINUTES      HOURS       DAYS        YEARS
                    -----------------------------------------------------------
   TIME STEP LENGTH 2.11142E+05  3519.0      58.651      2.4438     6.69068E-03
 STRESS PERIOD TIME 5.33720E+05  8895.3      148.26      6.1773     1.69126E-02
         TOTAL TIME 3.29852E+06  54975.      916.26      38.177     0.10452    
1
 
 SOLVING FOR HEAD 
     2 CALLS TO PCG ROUTINE FOR TIME STEP   4 IN STRESS PERIOD    3
     3 TOTAL ITERATIONS

 OUTPUT CONTROL FOR STRESS PERIOD    3   TIME STEP    4
    SAVE HEAD FOR ALL LAYERS
    SAVE DRAWDOWN FOR ALL LAYERS
    SAVE BUDGET
    PRINT BUDGET
 UBUDSV SAVING "         STORAGE" ON UNIT 50 AT TIME STEP  4, STRESS PERIOD    3
 UBUDSV SAVING "   CONSTANT HEAD" ON UNIT 50 AT TIME STEP  4, STRESS PERIOD    3
 UBUDSV SAVING "FLOW RIGHT FACE " ON UNIT 50 AT TIME STEP  4, STRESS PERIOD    3
 UBUDSV SAVING "FLOW FRONT FACE " ON UNIT 50 AT TIME STEP  4, STRESS PERIOD    3
 UBUDSV SAVING "           WELLS" ON UNIT 50 AT TIME STEP  4, STRESS PERIOD    3
 UBUDSV SAVING "        RECHARGE" ON UNIT 50 AT TIME STEP  4, STRESS PERIOD    3

 HEAD WILL BE SAVED ON UNIT   30 AT END OF TIME STEP    4, STRESS PERIOD    3

 DRAWDOWN WILL BE SAVED ON UNIT   31 AT END OF TIME STEP    4, STRESS PERIOD    3
1
  VOLUMETRIC BUDGET FOR ENTIRE MODEL AT END OF TIME STEP    4, STRESS PERIOD   3
  ------------------------------------------------------------------------------

     CUMULATIVE VOLUMES      L**3       RATES FOR THIS TIME STEP      L**3/T
     ------------------                 ------------------------

           IN:                                      IN:
           ---                                      ---
             STORAGE =      129413.9609               STORAGE =           0.0000
       CONSTANT HEAD =           0.0000         CONSTANT HEAD =           0.0000
               WELLS =           0.0000                 WELLS =           0.0000
            RECHARGE =     2540782.7500              RECHARGE =      128250.0000

            TOTAL IN =     2670196.7500              TOTAL IN =      128250.0000

          OUT:                                     OUT:
          ----                                     ----
             STORAGE =      724861.3750               STORAGE =       78578.0625
       CONSTANT HEAD =     1945662.8750         CONSTANT HEAD =       49727.7070
               WELLS =           0.0000                 WELLS =           0.0000
            RECHARGE =           0.0000              RECHARGE =           0.0000

           TOTAL OUT =     2670524.2500             TOTAL OUT =      128305.7656

            IN - OUT =        -327.5000              IN - OUT =         -55.7656

 PERCENT DISCREPANCY =          -0.01     PERCENT DISCREPANCY =          -0.04






         TIME SUMMARY AT END OF TIME STEP    4 IN STRESS PERIOD    3
                    SECONDS     MINUTES      HOURS       DAYS        YEARS
                    -----------------------------------------------------------
   TIME STEP LENGTH 2.53370E+05  4222.8      70.381      2.9325     8.02882E-03
 STRESS PERIOD TIME 7.87090E+05  13118.      218.64      9.1098     2.49414E-02
         TOTAL TIME 3.55189E+06  59198.      986.64      41.110     0.11255    
1
 
 SOLVING FOR HEAD 
     2 CALLS TO PCG ROUTINE FOR TIME STEP   5 IN STRESS PERIOD    3
     3 TOTAL ITERATIONS

 MAXIMUM HEAD CHANGE FOR EACH ITERATION (1 INDICATES THE FIRST INNER ITERATION):

    HEAD CHANGE    HEAD CHANGE    HEAD CHANGE    HEAD CHANGE    HEAD CHANGE 
   LAYER,ROW,COL  LAYER,ROW,COL  LAYER,ROW,COL  LAYER,ROW,COL  LAYER,ROW,COL
 ---------------------------------------------------------------------------
  1  0.6658E-01  0 -0.5346E-03  1  0.2983E-03
   (  1, 11,  4)  (  1, 20,  9)  (  1, 20,  3)

 MAXIMUM RESIDUAL FOR EACH ITERATION (1 INDICATES THE FIRST INNER ITERATION):

    RESIDUAL       RESIDUAL       RESIDUAL       RESIDUAL       RESIDUAL    
   LAYER,ROW,COL  LAYER,ROW,COL  LAYER,ROW,COL  LAYER,ROW,COL  LAYER,ROW,COL
 ---------------------------------------------------------------------------
  1   4.933      0  0.4485E-01  1  0.4159E-01
   (  1, 20,  9)  (  1, 19,  9)  (  1, 20,  2)



 OUTPUT CONTROL FOR STRESS PERIOD    3   TIME STEP    5
    SAVE HEAD FOR ALL LAYERS
    SAVE DRAWDOWN FOR ALL LAYERS
    SAVE BUDGET
    PRINT BUDGET
 UBUDSV SAVING "         STORAGE" ON UNIT 50 AT TIME STEP  5, STRESS PERIOD    3
 UBUDSV SAVING "   CONSTANT HEAD" ON UNIT 50 AT TIME STEP  5, STRESS PERIOD    3
 UBUDSV SAVING "FLOW RIGHT FACE " ON UNIT 50 AT TIME STEP  5, STRESS PERIOD    3
 UBUDSV SAVING "FLOW FRONT FACE " ON UNIT 50 AT TIME STEP  5, STRESS PERIOD    3
 UBUDSV SAVING "           WELLS" ON UNIT 50 AT TIME STEP  5, STRESS PERIOD    3
 UBUDSV SAVING "        RECHARGE" ON UNIT 50 AT TIME STEP  5, STRESS PERIOD    3

 HEAD WILL BE SAVED ON UNIT   30 AT END OF TIME STEP    5, STRESS PERIOD    3

 DRAWDOWN WILL BE SAVED ON UNIT   31 AT END OF TIME STEP    5, STRESS PERIOD    3
1
  VOLUMETRIC BUDGET FOR ENTIRE MODEL AT END OF TIME STEP    5, STRESS PERIOD   3
  ------------------------------------------------------------------------------

     CUMULATIVE VOLUMES      L**3       RATES FOR THIS TIME STEP      L**3/T
     ------------------                 ------------------------

           IN:                                      IN:
           ---                                      ---
             STORAGE =      129413.9609               STORAGE =           0.0000
       CONSTANT HEAD =           0.0000         CONSTANT HEAD =           0.0000
               WELLS =           0.0000                 WELLS =           0.0000
            RECHARGE =     2992098.5000              RECHARGE =      128250.0000

            TOTAL IN =     3121512.5000              TOTAL IN =      128250.0000

          OUT:                                     OUT:
          ----                                     ----
             STORAGE =      997925.8750               STORAGE =       77596.5000
       CONSTANT HEAD =     2124002.0000         CONSTANT HEAD =       50678.4492
               WELLS =           0.0000                 WELLS =           0.0000
            RECHARGE =           0.0000              RECHARGE =           0.0000

           TOTAL OUT =     3121928.0000             TOTAL OUT =      128274.9531

            IN - OUT =        -415.5000              IN - OUT =         -24.9531

 PERCENT DISCREPANCY =          -0.01     PERCENT DISCREPANCY =          -0.02






         TIME SUMMARY AT END OF TIME STEP    5 IN STRESS PERIOD    3
                    SECONDS     MINUTES      HOURS       DAYS        YEARS
                    -----------------------------------------------------------
   TIME STEP LENGTH 3.04044E+05  5067.4      84.457      3.5190     9.63458E-03
 STRESS PERIOD TIME 1.09113E+06  18186.      303.09      12.629     3.45760E-02
         TOTAL TIME 3.85593E+06  64266.      1071.1      44.629     0.12219    
1
 
 SOLVING FOR HEAD 
     2 CALLS TO PCG ROUTINE FOR TIME STEP   6 IN STRESS PERIOD    3
     3 TOTAL ITERATIONS

 OUTPUT CONTROL FOR STRESS PERIOD    3   TIME STEP    6
    SAVE HEAD FOR ALL LAYERS
    SAVE DRAWDOWN FOR ALL LAYERS
    SAVE BUDGET
    PRINT BUDGET
 UBUDSV SAVING "         STORAGE" ON UNIT 50 AT TIME STEP  6, STRESS PERIOD    3
 UBUDSV SAVING "   CONSTANT HEAD" ON UNIT 50 AT TIME STEP  6, STRESS PERIOD    3
 UBUDSV SAVING "FLOW RIGHT FACE " ON UNIT 50 AT TIME STEP  6, STRESS PERIOD    3
 UBUDSV SAVING "FLOW FRONT FACE " ON UNIT 50 AT TIME STEP  6, STRESS PERIOD    3
 UBUDSV SAVING "           WELLS" ON UNIT 50 AT TIME STEP  6, STRESS PERIOD    3
 UBUDSV SAVING "        RECHARGE" ON UNIT 50 AT TIME STEP  6, STRESS PERIOD    3

 HEAD WILL BE SAVED ON UNIT   30 AT END OF TIME STEP    6, STRESS PERIOD    3

 DRAWDOWN WILL BE SAVED ON UNIT   31 AT END OF TIME STEP    6, STRESS PERIOD    3
1
  VOLUMETRIC BUDGET FOR ENTIRE MODEL AT END OF TIME STEP    6, STRESS PERIOD   3
  ------------------------------------------------------------------------------

     CUMULATIVE VOLUMES      L**3       RATES FOR THIS TIME STEP      L**3/T
     ------------------                 ------------------------

           IN:                                      IN:
           ---                                      ---
             STORAGE =      129413.9609               STORAGE =           0.0000
       CONSTANT HEAD =           0.0000         CONSTANT HEAD =           0.0000
               WELLS =           0.0000                 WELLS =           0.0000
            RECHARGE =     3533677.2500              RECHARGE =      128250.0000

            TOTAL IN =     3663091.2500              TOTAL IN =      128250.0000

          OUT:                                     OUT:
          ----                                     ----
             STORAGE =     1321053.3750               STORAGE =       76519.0625
       CONSTANT HEAD =     2342427.7500         CONSTANT HEAD =       51724.8711
               WELLS =           0.0000                 WELLS =           0.0000
            RECHARGE =           0.0000              RECHARGE =           0.0000

           TOTAL OUT =     3663481.0000             TOTAL OUT =      128243.9375

            IN - OUT =        -389.7500              IN - OUT =           6.0625

 PERCENT DISCREPANCY =          -0.01     PERCENT DISCREPANCY =           0.00






         TIME SUMMARY AT END OF TIME STEP    6 IN STRESS PERIOD    3
                    SECONDS     MINUTES      HOURS       DAYS        YEARS
                    -----------------------------------------------------------
   TIME STEP LENGTH 3.64853E+05  6080.9      101.35      4.2228     1.15615E-02
 STRESS PERIOD TIME 1.45599E+06  24266.      404.44      16.852     4.61375E-02
         TOTAL TIME 4.22079E+06  70346.      1172.4      48.852     0.13375    
1
 
 SOLVING FOR HEAD 
     2 CALLS TO PCG ROUTINE FOR TIME STEP   7 IN STRESS PERIOD    3
     4 TOTAL ITERATIONS

 OUTPUT CONTROL FOR STRESS PERIOD    3   TIME STEP    7
    SAVE HEAD FOR ALL LAYERS
    SAVE DRAWDOWN FOR ALL LAYERS
    SAVE BUDGET
    PRINT BUDGET
 UBUDSV SAVING "         STORAGE" ON UNIT 50 AT TIME STEP  7, STRESS PERIOD    3
 UBUDSV SAVING "   CONSTANT HEAD" ON UNIT 50 AT TIME STEP  7, STRESS PERIOD    3
 UBUDSV SAVING "FLOW RIGHT FACE " ON UNIT 50 AT TIME STEP  7, STRESS PERIOD    3
 UBUDSV SAVING "FLOW FRONT FACE " ON UNIT 50 AT TIME STEP  7, STRESS PERIOD    3
 UBUDSV SAVING "           WELLS" ON UNIT 50 AT TIME STEP  7, STRESS PERIOD    3
 UBUDSV SAVING "        RECHARGE" ON UNIT 50 AT TIME STEP  7, STRESS PERIOD    3

 HEAD WILL BE SAVED ON UNIT   30 AT END OF TIME STEP    7, STRESS PERIOD    3

 DRAWDOWN WILL BE SAVED ON UNIT   31 AT END OF TIME STEP    7, STRESS PERIOD    3
1
  VOLUMETRIC BUDGET FOR ENTIRE MODEL AT END OF TIME STEP    7, STRESS PERIOD   3
  ------------------------------------------------------------------------------

     CUMULATIVE VOLUMES      L**3       RATES FOR THIS TIME STEP      L**3/T
     ------------------                 ------------------------

           IN:                                      IN:
           ---                                      ---
             STORAGE =      129413.9609               STORAGE =           0.0000
       CONSTANT HEAD =           0.0000         CONSTANT HEAD =           0.0000
               WELLS =           0.0000                 WELLS =           0.0000
            RECHARGE =     4183572.0000              RECHARGE =      128250.0000

            TOTAL IN =     4312986.0000              TOTAL IN =      128250.0000

          OUT:                                     OUT:
          ----                                     ----
             STORAGE =     1703095.2500               STORAGE =       75392.0312
       CONSTANT HEAD =     2610362.5000         CONSTANT HEAD =       52874.1680
               WELLS =           0.0000                 WELLS =           0.0000
            RECHARGE =           0.0000              RECHARGE =           0.0000

           TOTAL OUT =     4313458.0000             TOTAL OUT =      128266.2031

            IN - OUT =        -472.0000              IN - OUT =         -16.2031

 PERCENT DISCREPANCY =          -0.01     PERCENT DISCREPANCY =          -0.01






         TIME SUMMARY AT END OF TIME STEP    7 IN STRESS PERIOD    3
                    SECONDS     MINUTES      HOURS       DAYS        YEARS
                    -----------------------------------------------------------
   TIME STEP LENGTH 4.37824E+05  7297.1      121.62      5.0674     1.38738E-02
 STRESS PERIOD TIME 1.89381E+06  31564.      526.06      21.919     6.00113E-02
         TOTAL TIME 4.65861E+06  77644.      1294.1      53.919     0.14762    
1
 
 SOLVING FOR HEAD 
     2 CALLS TO PCG ROUTINE FOR TIME STEP   8 IN STRESS PERIOD    3
     4 TOTAL ITERATIONS

 MAXIMUM HEAD CHANGE FOR EACH ITERATION (1 INDICATES THE FIRST INNER ITERATION):

    HEAD CHANGE    HEAD CHANGE    HEAD CHANGE    HEAD CHANGE    HEAD CHANGE 
   LAYER,ROW,COL  LAYER,ROW,COL  LAYER,ROW,COL  LAYER,ROW,COL  LAYER,ROW,COL
 ---------------------------------------------------------------------------
  1  0.1143      0 -0.1517E-02  0  0.2645E-04  1  0.7151E-03
   (  1, 10,  2)  (  1, 20,  9)  (  1, 19,  2)  (  1, 20,  2)

 MAXIMUM RESIDUAL FOR EACH ITERATION (1 INDICATES THE FIRST INNER ITERATION):

    RESIDUAL       RESIDUAL       RESIDUAL       RESIDUAL       RESIDUAL    
   LAYER,ROW,COL  LAYER,ROW,COL  LAYER,ROW,COL  LAYER,ROW,COL  LAYER,ROW,COL
 ---------------------------------------------------------------------------
  1   9.290      0 -0.2261      0 -0.4725E-02  1  0.1403    
   (  1, 20,  9)  (  1, 19,  2)  (  1, 17,  3)  (  1, 20,  2)



 OUTPUT CONTROL FOR STRESS PERIOD    3   TIME STEP    8
    SAVE HEAD FOR ALL LAYERS
    SAVE DRAWDOWN FOR ALL LAYERS
    SAVE BUDGET
    PRINT BUDGET
 UBUDSV SAVING "         STORAGE" ON UNIT 50 AT TIME STEP  8, STRESS PERIOD    3
 UBUDSV SAVING "   CONSTANT HEAD" ON UNIT 50 AT TIME STEP  8, STRESS PERIOD    3
 UBUDSV SAVING "FLOW RIGHT FACE " ON UNIT 50 AT TIME STEP  8, STRESS PERIOD    3
 UBUDSV SAVING "FLOW FRONT FACE " ON UNIT 50 AT TIME STEP  8, STRESS PERIOD    3
 UBUDSV SAVING "           WELLS" ON UNIT 50 AT TIME STEP  8, STRESS PERIOD    3
 UBUDSV SAVING "        RECHARGE" ON UNIT 50 AT TIME STEP  8, STRESS PERIOD    3

 HEAD WILL BE SAVED ON UNIT   30 AT END OF TIME STEP    8, STRESS PERIOD    3

 DRAWDOWN WILL BE SAVED ON UNIT   31 AT END OF TIME STEP    8, STRESS PERIOD    3
1
  VOLUMETRIC BUDGET FOR ENTIRE MODEL AT END OF TIME STEP    8, STRESS PERIOD   3
  ------------------------------------------------------------------------------

     CUMULATIVE VOLUMES      L**3       RATES FOR THIS TIME STEP      L**3/T
     ------------------                 ------------------------

           IN:                                      IN:
           ---                                      ---
             STORAGE =      129413.9609               STORAGE =           0.0000
       CONSTANT HEAD =           0.0000         CONSTANT HEAD =           0.0000
               WELLS =           0.0000                 WELLS =           0.0000
            RECHARGE =     4963445.5000              RECHARGE =      128250.0000

            TOTAL IN =     5092859.5000              TOTAL IN =      128250.0000

          OUT:                                     OUT:
          ----                                     ----
             STORAGE =     2153847.2500               STORAGE =       74126.0312
       CONSTANT HEAD =     2939554.5000         CONSTANT HEAD =       54135.5273
               WELLS =           0.0000                 WELLS =           0.0000
            RECHARGE =           0.0000              RECHARGE =           0.0000

           TOTAL OUT =     5093402.0000             TOTAL OUT =      128261.5625

            IN - OUT =        -542.5000              IN - OUT =         -11.5625

 PERCENT DISCREPANCY =          -0.01     PERCENT DISCREPANCY =          -0.01






         TIME SUMMARY AT END OF TIME STEP    8 IN STRESS PERIOD    3
                    SECONDS     MINUTES      HOURS       DAYS        YEARS
                    -----------------------------------------------------------
   TIME STEP LENGTH 5.25389E+05  8756.5      145.94      6.0809     1.66486E-02
 STRESS PERIOD TIME 2.41920E+06  40320.      672.00      28.000     7.66598E-02
         TOTAL TIME 5.18400E+06  86400.      1440.0      60.000     0.16427    
1
1
                            STRESS PERIOD NO.    4, LENGTH =   31.00000    
                            -----------------------------------------------

                              NUMBER OF TIME STEPS =     8

                               MULTIPLIER FOR DELT =     1.200

                            INITIAL TIME STEP SIZE =   1.878892    

 OPENING FILE ON UNIT   99:
 .\WEL_0003.dat                                                                                                                                                                                          

 WELL NO.  LAYER   ROW   COL   STRESS RATE         IFACE           
 ------------------------------------------------------------------
      1      1      5      5       0.000           0.000    
      2      1     11      5       0.000           0.000    
      3      1      5      5       0.000           0.000    

      3 WELLS

 OPENING FILE ON UNIT   99:
 .\rech_3.ref                                                                                                                                                                                            



                           RECHARGE
 READING ON UNIT   99 WITH FORMAT: (FREE)              
 
 SOLVING FOR HEAD 


     2 CALLS TO PCG ROUTINE FOR TIME STEP   1 IN STRESS PERIOD    4
     3 TOTAL ITERATIONS

 OUTPUT CONTROL FOR STRESS PERIOD    4   TIME STEP    1
    SAVE HEAD FOR ALL LAYERS
    SAVE DRAWDOWN FOR ALL LAYERS
    SAVE BUDGET
    PRINT BUDGET
 UBUDSV SAVING "         STORAGE" ON UNIT 50 AT TIME STEP  1, STRESS PERIOD    4
 UBUDSV SAVING "   CONSTANT HEAD" ON UNIT 50 AT TIME STEP  1, STRESS PERIOD    4
 UBUDSV SAVING "FLOW RIGHT FACE " ON UNIT 50 AT TIME STEP  1, STRESS PERIOD    4
 UBUDSV SAVING "FLOW FRONT FACE " ON UNIT 50 AT TIME STEP  1, STRESS PERIOD    4
 UBUDSV SAVING "           WELLS" ON UNIT 50 AT TIME STEP  1, STRESS PERIOD    4
 UBUDSV SAVING "        RECHARGE" ON UNIT 50 AT TIME STEP  1, STRESS PERIOD    4

 HEAD WILL BE SAVED ON UNIT   30 AT END OF TIME STEP    1, STRESS PERIOD    4

 DRAWDOWN WILL BE SAVED ON UNIT   31 AT END OF TIME STEP    1, STRESS PERIOD    4
1
  VOLUMETRIC BUDGET FOR ENTIRE MODEL AT END OF TIME STEP    1, STRESS PERIOD   4
  ------------------------------------------------------------------------------

     CUMULATIVE VOLUMES      L**3       RATES FOR THIS TIME STEP      L**3/T
     ------------------                 ------------------------

           IN:                                      IN:
           ---                                      ---
             STORAGE =      129413.9609               STORAGE =           0.0000
       CONSTANT HEAD =           0.0000         CONSTANT HEAD =           0.0000
               WELLS =           0.0000                 WELLS =           0.0000
            RECHARGE =     5284736.0000              RECHARGE =      171000.0000

            TOTAL IN =     5414150.0000              TOTAL IN =      171000.0000

          OUT:                                     OUT:
          ----                                     ----
             STORAGE =     2371936.2500               STORAGE =      116073.2500
       CONSTANT HEAD =     3042653.7500         CONSTANT HEAD =       54872.3906
               WELLS =           0.0000                 WELLS =           0.0000
            RECHARGE =           0.0000              RECHARGE =           0.0000

           TOTAL OUT =     5414590.0000             TOTAL OUT =      170945.6406

            IN - OUT =        -440.0000              IN - OUT =          54.3594

 PERCENT DISCREPANCY =          -0.01     PERCENT DISCREPANCY =           0.03






         TIME SUMMARY AT END OF TIME STEP    1 IN STRESS PERIOD    4
                    SECONDS     MINUTES      HOURS       DAYS        YEARS
                    -----------------------------------------------------------
   TIME STEP LENGTH 1.62336E+05  2705.6      45.093      1.8789     5.14413E-03
 STRESS PERIOD TIME 1.62336E+05  2705.6      45.093      1.8789     5.14413E-03
         TOTAL TIME 5.34634E+06  89106.      1485.1      61.879     0.16942    
1
 
 SOLVING FOR HEAD 
     2 CALLS TO PCG ROUTINE FOR TIME STEP   2 IN STRESS PERIOD    4
     3 TOTAL ITERATIONS

 OUTPUT CONTROL FOR STRESS PERIOD    4   TIME STEP    2
    SAVE HEAD FOR ALL LAYERS
    SAVE DRAWDOWN FOR ALL LAYERS
    SAVE BUDGET
    PRINT BUDGET
 UBUDSV SAVING "         STORAGE" ON UNIT 50 AT TIME STEP  2, STRESS PERIOD    4
 UBUDSV SAVING "   CONSTANT HEAD" ON UNIT 50 AT TIME STEP  2, STRESS PERIOD    4
 UBUDSV SAVING "FLOW RIGHT FACE " ON UNIT 50 AT TIME STEP  2, STRESS PERIOD    4
 UBUDSV SAVING "FLOW FRONT FACE " ON UNIT 50 AT TIME STEP  2, STRESS PERIOD    4
 UBUDSV SAVING "           WELLS" ON UNIT 50 AT TIME STEP  2, STRESS PERIOD    4
 UBUDSV SAVING "        RECHARGE" ON UNIT 50 AT TIME STEP  2, STRESS PERIOD    4

 HEAD WILL BE SAVED ON UNIT   30 AT END OF TIME STEP    2, STRESS PERIOD    4

 DRAWDOWN WILL BE SAVED ON UNIT   31 AT END OF TIME STEP    2, STRESS PERIOD    4
1
  VOLUMETRIC BUDGET FOR ENTIRE MODEL AT END OF TIME STEP    2, STRESS PERIOD   4
  ------------------------------------------------------------------------------

     CUMULATIVE VOLUMES      L**3       RATES FOR THIS TIME STEP      L**3/T
     ------------------                 ------------------------

           IN:                                      IN:
           ---                                      ---
             STORAGE =      129413.9609               STORAGE =           0.0000
       CONSTANT HEAD =           0.0000         CONSTANT HEAD =           0.0000
               WELLS =           0.0000                 WELLS =           0.0000
            RECHARGE =     5670284.5000              RECHARGE =      171000.0000

            TOTAL IN =     5799698.5000              TOTAL IN =      171000.0000

          OUT:                                     OUT:
          ----                                     ----
             STORAGE =     2631731.5000               STORAGE =      115225.4375
       CONSTANT HEAD =     3168265.0000         CONSTANT HEAD =       55711.5664
               WELLS =           0.0000                 WELLS =           0.0000
            RECHARGE =           0.0000              RECHARGE =           0.0000

           TOTAL OUT =     5799996.5000             TOTAL OUT =      170937.0000

            IN - OUT =        -298.0000              IN - OUT =          63.0000

 PERCENT DISCREPANCY =          -0.01     PERCENT DISCREPANCY =           0.04






         TIME SUMMARY AT END OF TIME STEP    2 IN STRESS PERIOD    4
                    SECONDS     MINUTES      HOURS       DAYS        YEARS
                    -----------------------------------------------------------
   TIME STEP LENGTH 1.94804E+05  3246.7      54.112      2.2547     6.17295E-03
 STRESS PERIOD TIME 3.57140E+05  5952.3      99.205      4.1336     1.13171E-02
         TOTAL TIME 5.54114E+06  92352.      1539.2      64.134     0.17559    
1
 
 SOLVING FOR HEAD 
     2 CALLS TO PCG ROUTINE FOR TIME STEP   3 IN STRESS PERIOD    4
     3 TOTAL ITERATIONS

 OUTPUT CONTROL FOR STRESS PERIOD    4   TIME STEP    3
    SAVE HEAD FOR ALL LAYERS
    SAVE DRAWDOWN FOR ALL LAYERS
    SAVE BUDGET
    PRINT BUDGET
 UBUDSV SAVING "         STORAGE" ON UNIT 50 AT TIME STEP  3, STRESS PERIOD    4
 UBUDSV SAVING "   CONSTANT HEAD" ON UNIT 50 AT TIME STEP  3, STRESS PERIOD    4
 UBUDSV SAVING "FLOW RIGHT FACE " ON UNIT 50 AT TIME STEP  3, STRESS PERIOD    4
 UBUDSV SAVING "FLOW FRONT FACE " ON UNIT 50 AT TIME STEP  3, STRESS PERIOD    4
 UBUDSV SAVING "           WELLS" ON UNIT 50 AT TIME STEP  3, STRESS PERIOD    4
 UBUDSV SAVING "        RECHARGE" ON UNIT 50 AT TIME STEP  3, STRESS PERIOD    4

 HEAD WILL BE SAVED ON UNIT   30 AT END OF TIME STEP    3, STRESS PERIOD    4

 DRAWDOWN WILL BE SAVED ON UNIT   31 AT END OF TIME STEP    3, STRESS PERIOD    4
1
  VOLUMETRIC BUDGET FOR ENTIRE MODEL AT END OF TIME STEP    3, STRESS PERIOD   4
  ------------------------------------------------------------------------------

     CUMULATIVE VOLUMES      L**3       RATES FOR THIS TIME STEP      L**3/T
     ------------------                 ------------------------

           IN:                                      IN:
           ---                                      ---
             STORAGE =      129413.9609               STORAGE =           0.0000
       CONSTANT HEAD =           0.0000         CONSTANT HEAD =           0.0000
               WELLS =           0.0000                 WELLS =           0.0000
            RECHARGE =     6132943.0000              RECHARGE =      171000.0000

            TOTAL IN =     6262357.0000              TOTAL IN =      171000.0000

          OUT:                                     OUT:
          ----                                     ----
             STORAGE =     2941052.0000               STORAGE =      114325.8750
       CONSTANT HEAD =     3321583.2500         CONSTANT HEAD =       56666.9141
               WELLS =           0.0000                 WELLS =           0.0000
            RECHARGE =           0.0000              RECHARGE =           0.0000

           TOTAL OUT =     6262635.0000             TOTAL OUT =      170992.7812

[...]

            IN - OUT =        4640.0000              IN - OUT =          66.7031

 PERCENT DISCREPANCY =           0.01     PERCENT DISCREPANCY =           0.13






         TIME SUMMARY AT END OF TIME STEP    2 IN STRESS PERIOD   25
                    SECONDS     MINUTES      HOURS       DAYS        YEARS
                    -----------------------------------------------------------
   TIME STEP LENGTH 1.94804E+05  3246.7      54.112      2.2547     6.17295E-03
 STRESS PERIOD TIME 3.57140E+05  5952.3      99.205      4.1336     1.13171E-02
         TOTAL TIME 6.08372E+07 1.01395E+06  16899.      704.13      1.9278    
1
 
 SOLVING FOR HEAD 
     3 CALLS TO PCG ROUTINE FOR TIME STEP   3 IN STRESS PERIOD   25
     5 TOTAL ITERATIONS

 OUTPUT CONTROL FOR STRESS PERIOD   25   TIME STEP    3
    SAVE HEAD FOR ALL LAYERS
    SAVE DRAWDOWN FOR ALL LAYERS
    SAVE BUDGET
    PRINT BUDGET
 UBUDSV SAVING "         STORAGE" ON UNIT 50 AT TIME STEP  3, STRESS PERIOD   25
 UBUDSV SAVING "   CONSTANT HEAD" ON UNIT 50 AT TIME STEP  3, STRESS PERIOD   25
 UBUDSV SAVING "FLOW RIGHT FACE " ON UNIT 50 AT TIME STEP  3, STRESS PERIOD   25
 UBUDSV SAVING "FLOW FRONT FACE " ON UNIT 50 AT TIME STEP  3, STRESS PERIOD   25
 UBUDSV SAVING "           WELLS" ON UNIT 50 AT TIME STEP  3, STRESS PERIOD   25
 UBUDSV SAVING "        RECHARGE" ON UNIT 50 AT TIME STEP  3, STRESS PERIOD   25

 HEAD WILL BE SAVED ON UNIT   30 AT END OF TIME STEP    3, STRESS PERIOD   25

 DRAWDOWN WILL BE SAVED ON UNIT   31 AT END OF TIME STEP    3, STRESS PERIOD   25
1
  VOLUMETRIC BUDGET FOR ENTIRE MODEL AT END OF TIME STEP    3, STRESS PERIOD  25
  ------------------------------------------------------------------------------

     CUMULATIVE VOLUMES      L**3       RATES FOR THIS TIME STEP      L**3/T
     ------------------                 ------------------------

           IN:                                      IN:
           ---                                      ---
             STORAGE =    21056992.0000               STORAGE =       28474.6250
       CONSTANT HEAD =           0.0000         CONSTANT HEAD =           0.0000
               WELLS =           0.0000                 WELLS =           0.0000
            RECHARGE =    33572584.0000              RECHARGE =       21375.0000

            TOTAL IN =    54629576.0000              TOTAL IN =       49849.6250

          OUT:                                     OUT:
          ----                                     ----
             STORAGE =    13884806.0000               STORAGE =          70.8750
       CONSTANT HEAD =    33923340.0000         CONSTANT HEAD =       29776.3164
               WELLS =     6816784.5000                 WELLS =       20000.0000
            RECHARGE =           0.0000              RECHARGE =           0.0000

           TOTAL OUT =    54624928.0000             TOTAL OUT =       49847.1914

            IN - OUT =        4648.0000              IN - OUT =           2.4336

 PERCENT DISCREPANCY =           0.01     PERCENT DISCREPANCY =           0.00






         TIME SUMMARY AT END OF TIME STEP    3 IN STRESS PERIOD   25
                    SECONDS     MINUTES      HOURS       DAYS        YEARS
                    -----------------------------------------------------------
   TIME STEP LENGTH 2.33764E+05  3896.1      64.935      2.7056     7.40754E-03
 STRESS PERIOD TIME 5.90904E+05  9848.4      164.14      6.8392     1.87246E-02
         TOTAL TIME 6.10709E+07 1.01785E+06  16964.      706.84      1.9352    
1
 
 SOLVING FOR HEAD 
     3 CALLS TO PCG ROUTINE FOR TIME STEP   4 IN STRESS PERIOD   25
     5 TOTAL ITERATIONS

 OUTPUT CONTROL FOR STRESS PERIOD   25   TIME STEP    4
    SAVE HEAD FOR ALL LAYERS
    SAVE DRAWDOWN FOR ALL LAYERS
    SAVE BUDGET
    PRINT BUDGET
 UBUDSV SAVING "         STORAGE" ON UNIT 50 AT TIME STEP  4, STRESS PERIOD   25
 UBUDSV SAVING "   CONSTANT HEAD" ON UNIT 50 AT TIME STEP  4, STRESS PERIOD   25
 UBUDSV SAVING "FLOW RIGHT FACE " ON UNIT 50 AT TIME STEP  4, STRESS PERIOD   25
 UBUDSV SAVING "FLOW FRONT FACE " ON UNIT 50 AT TIME STEP  4, STRESS PERIOD   25
 UBUDSV SAVING "           WELLS" ON UNIT 50 AT TIME STEP  4, STRESS PERIOD   25
 UBUDSV SAVING "        RECHARGE" ON UNIT 50 AT TIME STEP  4, STRESS PERIOD   25

 HEAD WILL BE SAVED ON UNIT   30 AT END OF TIME STEP    4, STRESS PERIOD   25

 DRAWDOWN WILL BE SAVED ON UNIT   31 AT END OF TIME STEP    4, STRESS PERIOD   25
1
  VOLUMETRIC BUDGET FOR ENTIRE MODEL AT END OF TIME STEP    4, STRESS PERIOD  25
  ------------------------------------------------------------------------------

     CUMULATIVE VOLUMES      L**3       RATES FOR THIS TIME STEP      L**3/T
     ------------------                 ------------------------

           IN:                                      IN:
           ---                                      ---
             STORAGE =    21149178.0000               STORAGE =       28393.3750
       CONSTANT HEAD =           0.0000         CONSTANT HEAD =           0.0000
               WELLS =           0.0000                 WELLS =           0.0000
            RECHARGE =    33641984.0000              RECHARGE =       21375.0000

            TOTAL IN =    54791160.0000              TOTAL IN =       49768.3750

          OUT:                                     OUT:
          ----                                     ----
             STORAGE =    13884848.0000               STORAGE =          12.8125
       CONSTANT HEAD =    34019916.0000         CONSTANT HEAD =       29745.5156
               WELLS =     6881719.0000                 WELLS =       20000.0000
            RECHARGE =           0.0000              RECHARGE =           0.0000

           TOTAL OUT =    54786484.0000             TOTAL OUT =       49758.3281

            IN - OUT =        4676.0000              IN - OUT =          10.0469

 PERCENT DISCREPANCY =           0.01     PERCENT DISCREPANCY =           0.02






         TIME SUMMARY AT END OF TIME STEP    4 IN STRESS PERIOD   25
                    SECONDS     MINUTES      HOURS       DAYS        YEARS
                    -----------------------------------------------------------
   TIME STEP LENGTH 2.80517E+05  4675.3      77.921      3.2467     8.88905E-03
 STRESS PERIOD TIME 8.71421E+05  14524.      242.06      10.086     2.76137E-02
         TOTAL TIME 6.13515E+07 1.02252E+06  17042.      710.09      1.9441    
1
 
 SOLVING FOR HEAD 
     3 CALLS TO PCG ROUTINE FOR TIME STEP   5 IN STRESS PERIOD   25
     5 TOTAL ITERATIONS

 MAXIMUM HEAD CHANGE FOR EACH ITERATION (1 INDICATES THE FIRST INNER ITERATION):

    HEAD CHANGE    HEAD CHANGE    HEAD CHANGE    HEAD CHANGE    HEAD CHANGE 
   LAYER,ROW,COL  LAYER,ROW,COL  LAYER,ROW,COL  LAYER,ROW,COL  LAYER,ROW,COL
 ---------------------------------------------------------------------------
  1 -0.4602E-01  0  0.2725E-03  1 -0.4345E-02  0 -0.4165E-04  1 -0.2684E-03
   (  1,  5,  5)  (  1,  5,  5)  (  1,  5,  5)  (  1,  6,  4)  (  1,  5,  5)

 MAXIMUM RESIDUAL FOR EACH ITERATION (1 INDICATES THE FIRST INNER ITERATION):

    RESIDUAL       RESIDUAL       RESIDUAL       RESIDUAL       RESIDUAL    
   LAYER,ROW,COL  LAYER,ROW,COL  LAYER,ROW,COL  LAYER,ROW,COL  LAYER,ROW,COL
 ---------------------------------------------------------------------------
  1  -2.436      0 -0.2698E-01  1  0.4678      0  0.6027E-02  1  0.3242E-01
   (  1,  5,  5)  (  1,  6,  4)  (  1,  6,  4)  (  1,  7,  3)  (  1,  6,  4)



 OUTPUT CONTROL FOR STRESS PERIOD   25   TIME STEP    5
    SAVE HEAD FOR ALL LAYERS
    SAVE DRAWDOWN FOR ALL LAYERS
    SAVE BUDGET
    PRINT BUDGET
 UBUDSV SAVING "         STORAGE" ON UNIT 50 AT TIME STEP  5, STRESS PERIOD   25
 UBUDSV SAVING "   CONSTANT HEAD" ON UNIT 50 AT TIME STEP  5, STRESS PERIOD   25
 UBUDSV SAVING "FLOW RIGHT FACE " ON UNIT 50 AT TIME STEP  5, STRESS PERIOD   25
 UBUDSV SAVING "FLOW FRONT FACE " ON UNIT 50 AT TIME STEP  5, STRESS PERIOD   25
 UBUDSV SAVING "           WELLS" ON UNIT 50 AT TIME STEP  5, STRESS PERIOD   25
 UBUDSV SAVING "        RECHARGE" ON UNIT 50 AT TIME STEP  5, STRESS PERIOD   25

 HEAD WILL BE SAVED ON UNIT   30 AT END OF TIME STEP    5, STRESS PERIOD   25

 DRAWDOWN WILL BE SAVED ON UNIT   31 AT END OF TIME STEP    5, STRESS PERIOD   25
1
  VOLUMETRIC BUDGET FOR ENTIRE MODEL AT END OF TIME STEP    5, STRESS PERIOD  25
  ------------------------------------------------------------------------------

     CUMULATIVE VOLUMES      L**3       RATES FOR THIS TIME STEP      L**3/T
     ------------------                 ------------------------

           IN:                                      IN:
           ---                                      ---
             STORAGE =    21259394.0000               STORAGE =       28289.2500
       CONSTANT HEAD =           0.0000         CONSTANT HEAD =           0.0000
               WELLS =           0.0000                 WELLS =           0.0000
            RECHARGE =    33725264.0000              RECHARGE =       21375.0000

            TOTAL IN =    54984656.0000              TOTAL IN =       49664.2500

          OUT:                                     OUT:
          ----                                     ----
             STORAGE =    13884848.0000               STORAGE =           0.0000
       CONSTANT HEAD =    34135596.0000         CONSTANT HEAD =       29691.3926
               WELLS =     6959640.5000                 WELLS =       20000.0000
            RECHARGE =           0.0000              RECHARGE =           0.0000

           TOTAL OUT =    54980084.0000             TOTAL OUT =       49691.3906

            IN - OUT =        4572.0000              IN - OUT =         -27.1406

 PERCENT DISCREPANCY =           0.01     PERCENT DISCREPANCY =          -0.05






         TIME SUMMARY AT END OF TIME STEP    5 IN STRESS PERIOD   25
                    SECONDS     MINUTES      HOURS       DAYS        YEARS
                    -----------------------------------------------------------
   TIME STEP LENGTH 3.36620E+05  5610.3      93.506      3.8961     1.06669E-02
 STRESS PERIOD TIME 1.20804E+06  20134.      335.57      13.982     3.82805E-02
         TOTAL TIME 6.16881E+07 1.02813E+06  17136.      713.98      1.9548    
1
 
 SOLVING FOR HEAD 
     3 CALLS TO PCG ROUTINE FOR TIME STEP   6 IN STRESS PERIOD   25
     5 TOTAL ITERATIONS

 OUTPUT CONTROL FOR STRESS PERIOD   25   TIME STEP    6
    SAVE HEAD FOR ALL LAYERS
    SAVE DRAWDOWN FOR ALL LAYERS
    SAVE BUDGET
    PRINT BUDGET
 UBUDSV SAVING "         STORAGE" ON UNIT 50 AT TIME STEP  6, STRESS PERIOD   25
 UBUDSV SAVING "   CONSTANT HEAD" ON UNIT 50 AT TIME STEP  6, STRESS PERIOD   25
 UBUDSV SAVING "FLOW RIGHT FACE " ON UNIT 50 AT TIME STEP  6, STRESS PERIOD   25
 UBUDSV SAVING "FLOW FRONT FACE " ON UNIT 50 AT TIME STEP  6, STRESS PERIOD   25
 UBUDSV SAVING "           WELLS" ON UNIT 50 AT TIME STEP  6, STRESS PERIOD   25
 UBUDSV SAVING "        RECHARGE" ON UNIT 50 AT TIME STEP  6, STRESS PERIOD   25

 HEAD WILL BE SAVED ON UNIT   30 AT END OF TIME STEP    6, STRESS PERIOD   25

 DRAWDOWN WILL BE SAVED ON UNIT   31 AT END OF TIME STEP    6, STRESS PERIOD   25
1
  VOLUMETRIC BUDGET FOR ENTIRE MODEL AT END OF TIME STEP    6, STRESS PERIOD  25
  ------------------------------------------------------------------------------

     CUMULATIVE VOLUMES      L**3       RATES FOR THIS TIME STEP      L**3/T
     ------------------                 ------------------------

           IN:                                      IN:
           ---                                      ---
             STORAGE =    21391292.0000               STORAGE =       28211.5625
       CONSTANT HEAD =           0.0000         CONSTANT HEAD =           0.0000
               WELLS =           0.0000                 WELLS =           0.0000
            RECHARGE =    33825200.0000              RECHARGE =       21375.0000

            TOTAL IN =    55216492.0000              TOTAL IN =       49586.5625

          OUT:                                     OUT:
          ----                                     ----
             STORAGE =    13884848.0000               STORAGE =           0.0000
       CONSTANT HEAD =    34274016.0000         CONSTANT HEAD =       29606.4609
               WELLS =     7053146.0000                 WELLS =       20000.0000
            RECHARGE =           0.0000              RECHARGE =           0.0000

           TOTAL OUT =    55212008.0000             TOTAL OUT =       49606.4609

            IN - OUT =        4484.0000              IN - OUT =         -19.8984

 PERCENT DISCREPANCY =           0.01     PERCENT DISCREPANCY =          -0.04






         TIME SUMMARY AT END OF TIME STEP    6 IN STRESS PERIOD   25
                    SECONDS     MINUTES      HOURS       DAYS        YEARS
                    -----------------------------------------------------------
   TIME STEP LENGTH 4.03945E+05  6732.4      112.21      4.6753     1.28002E-02
 STRESS PERIOD TIME 1.61199E+06  26866.      447.77      18.657     5.10808E-02
         TOTAL TIME 6.20920E+07 1.03487E+06  17248.      718.66      1.9676    
1
 
 SOLVING FOR HEAD 
     3 CALLS TO PCG ROUTINE FOR TIME STEP   7 IN STRESS PERIOD   25
     5 TOTAL ITERATIONS

 OUTPUT CONTROL FOR STRESS PERIOD   25   TIME STEP    7
    SAVE HEAD FOR ALL LAYERS
    SAVE DRAWDOWN FOR ALL LAYERS
    SAVE BUDGET
    PRINT BUDGET
 UBUDSV SAVING "         STORAGE" ON UNIT 50 AT TIME STEP  7, STRESS PERIOD   25
 UBUDSV SAVING "   CONSTANT HEAD" ON UNIT 50 AT TIME STEP  7, STRESS PERIOD   25
 UBUDSV SAVING "FLOW RIGHT FACE " ON UNIT 50 AT TIME STEP  7, STRESS PERIOD   25
 UBUDSV SAVING "FLOW FRONT FACE " ON UNIT 50 AT TIME STEP  7, STRESS PERIOD   25
 UBUDSV SAVING "           WELLS" ON UNIT 50 AT TIME STEP  7, STRESS PERIOD   25
 UBUDSV SAVING "        RECHARGE" ON UNIT 50 AT TIME STEP  7, STRESS PERIOD   25

 HEAD WILL BE SAVED ON UNIT   30 AT END OF TIME STEP    7, STRESS PERIOD   25

 DRAWDOWN WILL BE SAVED ON UNIT   31 AT END OF TIME STEP    7, STRESS PERIOD   25
1
  VOLUMETRIC BUDGET FOR ENTIRE MODEL AT END OF TIME STEP    7, STRESS PERIOD  25
  ------------------------------------------------------------------------------

     CUMULATIVE VOLUMES      L**3       RATES FOR THIS TIME STEP      L**3/T
     ------------------                 ------------------------

           IN:                                      IN:
           ---                                      ---
             STORAGE =    21548814.0000               STORAGE =       28076.9375
       CONSTANT HEAD =           0.0000         CONSTANT HEAD =           0.0000
               WELLS =           0.0000                 WELLS =           0.0000
            RECHARGE =    33945120.0000              RECHARGE =       21375.0000

            TOTAL IN =    55493936.0000              TOTAL IN =       49451.9375

          OUT:                                     OUT:
          ----                                     ----
             STORAGE =    13884848.0000               STORAGE =           0.0000
       CONSTANT HEAD =    34439436.0000         CONSTANT HEAD =       29484.5352
               WELLS =     7165353.0000                 WELLS =       20000.0000
            RECHARGE =           0.0000              RECHARGE =           0.0000

           TOTAL OUT =    55489636.0000             TOTAL OUT =       49484.5352

            IN - OUT =        4300.0000              IN - OUT =         -32.5977

 PERCENT DISCREPANCY =           0.01     PERCENT DISCREPANCY =          -0.07






         TIME SUMMARY AT END OF TIME STEP    7 IN STRESS PERIOD   25
                    SECONDS     MINUTES      HOURS       DAYS        YEARS
                    -----------------------------------------------------------
   TIME STEP LENGTH 4.84734E+05  8078.9      134.65      5.6103     1.53603E-02
 STRESS PERIOD TIME 2.09672E+06  34945.      582.42      24.268     6.64410E-02
         TOTAL TIME 6.25768E+07 1.04295E+06  17382.      724.27      1.9829    
1
 
 SOLVING FOR HEAD 
     3 CALLS TO PCG ROUTINE FOR TIME STEP   8 IN STRESS PERIOD   25
     5 TOTAL ITERATIONS

 MAXIMUM HEAD CHANGE FOR EACH ITERATION (1 INDICATES THE FIRST INNER ITERATION):

    HEAD CHANGE    HEAD CHANGE    HEAD CHANGE    HEAD CHANGE    HEAD CHANGE 
   LAYER,ROW,COL  LAYER,ROW,COL  LAYER,ROW,COL  LAYER,ROW,COL  LAYER,ROW,COL
 ---------------------------------------------------------------------------
  1 -0.7144E-01  0  0.7222E-03  1 -0.9638E-02  0 -0.1697E-03  1 -0.8284E-03
   (  1,  5,  5)  (  1,  5,  5)  (  1,  5,  5)  (  1,  6,  4)  (  1,  5,  5)

 MAXIMUM RESIDUAL FOR EACH ITERATION (1 INDICATES THE FIRST INNER ITERATION):

    RESIDUAL       RESIDUAL       RESIDUAL       RESIDUAL       RESIDUAL    
   LAYER,ROW,COL  LAYER,ROW,COL  LAYER,ROW,COL  LAYER,ROW,COL  LAYER,ROW,COL
 ---------------------------------------------------------------------------
  1  -4.352      0  0.8975E-01  1   1.410      0  0.3097E-01  1  0.1422    
   (  1,  5,  5)  (  1, 16,  2)  (  1,  6,  4)  (  1,  7,  3)  (  1,  6,  4)



 OUTPUT CONTROL FOR STRESS PERIOD   25   TIME STEP    8
    SAVE HEAD FOR ALL LAYERS
    SAVE DRAWDOWN FOR ALL LAYERS
    SAVE BUDGET
    PRINT BUDGET
 UBUDSV SAVING "         STORAGE" ON UNIT 50 AT TIME STEP  8, STRESS PERIOD   25
 UBUDSV SAVING "   CONSTANT HEAD" ON UNIT 50 AT TIME STEP  8, STRESS PERIOD   25
 UBUDSV SAVING "FLOW RIGHT FACE " ON UNIT 50 AT TIME STEP  8, STRESS PERIOD   25
 UBUDSV SAVING "FLOW FRONT FACE " ON UNIT 50 AT TIME STEP  8, STRESS PERIOD   25
 UBUDSV SAVING "           WELLS" ON UNIT 50 AT TIME STEP  8, STRESS PERIOD   25
 UBUDSV SAVING "        RECHARGE" ON UNIT 50 AT TIME STEP  8, STRESS PERIOD   25

 HEAD WILL BE SAVED ON UNIT   30 AT END OF TIME STEP    8, STRESS PERIOD   25

 DRAWDOWN WILL BE SAVED ON UNIT   31 AT END OF TIME STEP    8, STRESS PERIOD   25
1
  VOLUMETRIC BUDGET FOR ENTIRE MODEL AT END OF TIME STEP    8, STRESS PERIOD  25
  ------------------------------------------------------------------------------

     CUMULATIVE VOLUMES      L**3       RATES FOR THIS TIME STEP      L**3/T
     ------------------                 ------------------------

           IN:                                      IN:
           ---                                      ---
             STORAGE =    21736778.0000               STORAGE =       27919.3125
       CONSTANT HEAD =           0.0000         CONSTANT HEAD =           0.0000
               WELLS =           0.0000                 WELLS =           0.0000
            RECHARGE =    34089024.0000              RECHARGE =       21375.0000

            TOTAL IN =    55825800.0000              TOTAL IN =       49294.3125

          OUT:                                     OUT:
          ----                                     ----
             STORAGE =    13884848.0000               STORAGE =           0.0000
       CONSTANT HEAD =    34636812.0000         CONSTANT HEAD =       29317.0176
               WELLS =     7300001.0000                 WELLS =       20000.0000
            RECHARGE =           0.0000              RECHARGE =           0.0000

           TOTAL OUT =    55821660.0000             TOTAL OUT =       49317.0156

            IN - OUT =        4140.0000              IN - OUT =         -22.7031

 PERCENT DISCREPANCY =           0.01     PERCENT DISCREPANCY =          -0.05






         TIME SUMMARY AT END OF TIME STEP    8 IN STRESS PERIOD   25
                    SECONDS     MINUTES      HOURS       DAYS        YEARS
                    -----------------------------------------------------------
   TIME STEP LENGTH 5.81680E+05  9694.7      161.58      6.7324     1.84323E-02
 STRESS PERIOD TIME 2.67840E+06  44640.      744.00      31.000     8.48734E-02
         TOTAL TIME 6.31584E+07 1.05264E+06  17544.      731.00      2.0014    
1

 Run end date and time (yyyy/mm/dd hh:mm:ss): 2024/01/30 15:36:57
 Elapsed run time:  0.111 Seconds

