                                   MODFLOW 6
                U.S. GEOLOGICAL SURVEY MODULAR HYDROLOGIC MODEL
                          GROUNDWATER FLOW MODEL (GWF)
                            VERSION 6.4.2 06/28/2023

   MODFLOW 6 compiled Jul 05 2023 20:31:54 with Intel(R) Fortran Intel(R) 64
   Compiler Classic for applications running on Intel(R) 64, Version 2021.7.0
                             Build 20220726_000000

This software has been approved for release by the U.S. Geological 
Survey (USGS). Although the software has been subjected to rigorous 
review, the USGS reserves the right to update the software as needed 
pursuant to further analysis and review. No warranty, expressed or 
implied, is made by the USGS or the U.S. Government as to the 
functionality of the software and related material nor shall the 
fact of release constitute any such warranty. Furthermore, the 
software is released on condition that neither the USGS nor the U.S. 
Government shall be held liable for any damages resulting from its 
authorized or unauthorized use. Also refer to the USGS Water 
Resources Software User Rights Notice for complete use, copyright, 
and distribution information.


As a work of the United States Government, this USGS product is 
in the public domain within the United States. You can copy, 
modify, distribute, and perform the work, even for commercial 
purposes, all without asking permission. Additionally, USGS 
waives copyright and related rights in the work worldwide 
through CC0 1.0 Universal Public Domain Dedication 
(https://creativecommons.org/publicdomain/zero/1.0/).

The following GNU Lesser General Public License (LGPL) libraries
are used in this USGS product:

    SPARSKIT version 2.0
      ilut, luson, and qsplit 
      (https://www-users.cse.umn.edu/~saad/software/SPARSKIT/)

    RCM - Reverse Cuthill McKee Ordering
      (https://people.math.sc.edu/Burkardt/f_src/rcm/rcm.html)

    BLAS - Basic Linear Algebra Subprograms Level 1
      (https://people.math.sc.edu/Burkardt/f_src/blas1_d/blas1_d.html)

    SPARSEKIT - Sparse Matrix Utility Package
      amux, dperm, dvperm, rperm, and cperm
      (https://people.sc.fsu.edu/~jburkardt/f77_src/sparsekit/sparsekit.html)

The following BSD-3 License libraries are used in this USGS product:

    Modern Fortran DAG Library
      Copyright (c) 2018, Jacob Williams
      All rights reserved.
      (https://github.com/jacobwilliams/daglib)

MODFLOW 6 compiler options: /O2 /heap-arrays:0 /fpe:0 /traceback /nologo /fpp
/c /module:win64\mod_mf6\ /object:win64\obj_mf6\

System command used to initiate simulation:
C:\A\envs\pyclass\Scripts\mf6.exe

MODFLOW was compiled using uniform precision.

Real Variables
  KIND: 8
  TINY (smallest non-zero value):    2.225074-308
  HUGE (largest value):    1.797693+308
  PRECISION: 15
  SIZE IN BITS: 64

Integer Variables
  KIND: 4
  HUGE (largest value): 2147483647
  SIZE IN BITS: 32

Long Integer Variables
  KIND: 8
  HUGE (largest value): 9223372036854775807
  SIZE IN BITS: 64

Logical Variables
  KIND: 4
  SIZE IN BITS: 32
 
 NAMEFILE OPTIONS:
    NEWTON-RAPHSON method enabled for the model.
    NEWTON-RAPHSON UNDER-RELAXATION based on the bottom elevation of the model will be applied to the model.
    STRESS PACKAGE INPUT WILL BE PRINTED FOR ALL MODEL STRESS PACKAGES
    FLOWS WILL BE SAVED TO BUDGET FILE SPECIFIED IN OUTPUT CONTROL
 END NAMEFILE OPTIONS:

 DIS -- STRUCTURED GRID DISCRETIZATION PACKAGE, VERSION 2 : 3/27/2014 - INPUT READ FROM MEMPATH: __INPUT__/PLEASANT/DIS                            


 NPF -- NODE PROPERTY FLOW PACKAGE, VERSION 1, 3/30/2015 INPUT READ FROM MEMPATH: __INPUT__/PLEASANT/NPF                            

 Setting Discretization Options
    Model length unit [0=UND, 1=FEET, 2=METERS, 3=CENTIMETERS] set as 2
    XORIGIN = 552400.0000000000
    YORIGIN = 387200.0000000000
    ANGROT = .000000000000000
 End Setting Discretization Options

 Setting Discretization Dimensions
    NLAY = 4
    NROW = 64
    NCOL = 68
 End Setting Discretization Dimensions

 Setting Discretization Griddata
    DELR set from input file
    DELC set from input file
    TOP set from input file
    BOTM set from input file
    IDOMAIN set from input file
 End Setting Discretization Griddata


 The specified IDOMAIN results in a reduced number of cells.
 Number of user nodes: 17408
 Number of nodes in solution: 16685


 Setting NPF Options
    Cell-by-cell flow information will be saved to binary file whenever ICBCFL is not zero.
 End Setting NPF Options

 Setting NPF Griddata
    ICELLTYPE set from input file
    K set from input file
    K33 set from input file
    K22 not provided.  Setting K22 = K.
 End Setting NPF Griddata


 WEL   -- WEL PACKAGE, VERSION 8, 2/22/2014 INPUT READ FROM UNIT 1009
 # pleasant model version 0+unknown
 # File generated by Flopy version 3.3.6 on 09/23/2022 at 20:46:56.
 # via modflow-setup version 0.post363+gbfd5835 at 2022-09-23 20:46:56

 PROCESSING WEL OPTIONS
    WEL BOUNDARIES HAVE NAMES IN LAST COLUMN.
    LISTS OF WEL CELLS WILL BE PRINTED.
    WEL FLOWS WILL BE PRINTED TO LISTING FILE.
    FLOWS WILL BE SAVED TO BUDGET FILE SPECIFIED IN OUTPUT CONTROL
 END OF WEL OPTIONS

 PROCESSING WEL DIMENSIONS
    MAXBOUND =       9
 END OF WEL DIMENSIONS

 RCH   -- RCH PACKAGE, VERSION 8, 2/22/2014 INPUT READ FROM UNIT 1010
 # pleasant model version 0+unknown
 # File generated by Flopy version 3.3.6 on 09/23/2022 at 20:46:56.
 # via modflow-setup version 0.post363+gbfd5835 at 2022-09-23 20:46:56

 PROCESSING RCH OPTIONS
    RECHARGE INPUT WILL BE READ AS ARRAY(S).
    LISTS OF RCHA CELLS WILL BE PRINTED.
    RCHA FLOWS WILL BE PRINTED TO LISTING FILE.
    FLOWS WILL BE SAVED TO BUDGET FILE SPECIFIED IN OUTPUT CONTROL
 END OF RCHA OPTIONS

 CHD   -- CHD PACKAGE, VERSION 8, 2/22/2014 INPUT READ FROM UNIT 1011
 # pleasant model version 0+unknown
 # File generated by Flopy version 3.3.6 on 09/23/2022 at 20:46:56.
 # via modflow-setup version 0.post363+gbfd5835 at 2022-09-23 20:46:56

 PROCESSING CHD OPTIONS
    CHD BOUNDARIES HAVE NAMES IN LAST COLUMN.
    FLOWS WILL BE SAVED TO BUDGET FILE SPECIFIED IN OUTPUT CONTROL

 OPENED pleasant.chd.obs
 FILE TYPE:OBS   UNIT 1034   STATUS:OLD                 
 FORMAT:FORMATTED              ACCESS:SEQUENTIAL          
 ACTION:READ                

 END OF CHD OPTIONS

 PROCESSING CHD DIMENSIONS
    MAXBOUND =     773
 END OF CHD DIMENSIONS

 SFR   -- SFR PACKAGE, VERSION 8, 2/22/2014 INPUT READ FROM UNIT 1012
 # pleasant model version 0+unknown
 # File created by modflow-setup version 0.post363+gbfd5835 at 2022-09-23 20:46:56
 # MODFLOW-6 SFR input; created by SFRmaker v. 0.9.2.post1.dev0+ga2c193e

 PROCESSING SFR OPTIONS
    FLOWS WILL BE SAVED TO BUDGET FILE SPECIFIED IN OUTPUT CONTROL

 OPENED pleasant.sfr.out.bin
 FILE TYPE:DATA(BINARY)   UNIT 1035   STATUS:REPLACE             
 FORMAT:UNFORMATTED            ACCESS:STREAM              
 ACTION:READWRITE           

    SFR  BUDGET  WILL BE SAVED TO FILE: pleasant.sfr.out.bin
    OPENED ON UNIT: 1035

 OPENED pleasant.sfr.stage.bin
 FILE TYPE:DATA(BINARY)   UNIT 1036   STATUS:REPLACE             
 FORMAT:UNFORMATTED            ACCESS:STREAM              
 ACTION:READWRITE           

    SFR  STAGE  WILL BE SAVED TO FILE: pleasant.sfr.stage.bin
    OPENED ON UNIT: 1036

 OPENED pleasant.sfr.obs
 FILE TYPE:OBS   UNIT 1037   STATUS:OLD                 
 FORMAT:FORMATTED              ACCESS:SEQUENTIAL          
 ACTION:READ                

    AUXILIARY SFR VARIABLE: LINE_ID         
 END OF SFR OPTIONS

 PROCESSING SFR DIMENSIONS
    NREACHES = 80
 END OF SFR DIMENSIONS

 OPENED external/pleasant_packagedata.dat
 FILE TYPE:OPEN/CLOSE   UNIT 1038   STATUS:OLD                 
 FORMAT:FORMATTED              ACCESS:SEQUENTIAL          
 ACTION:READ                


 PROCESSING SFR PACKAGEDATA
 #rno k i j rlen rwid rgrd rtp rbth rhk man ncon ustrf ndv line_id
 END OF SFR PACKAGEDATA

 PROCESSING SFR CONNECTIONDATA
 END OF SFR CONNECTIONDATA

 LAK   -- LAK PACKAGE, VERSION 8, 2/22/2014 INPUT READ FROM UNIT 1013
 # pleasant model version 0+unknown
 # File generated by Flopy version 3.3.6 on 09/23/2022 at 20:46:56.
 # via modflow-setup version 0.post363+gbfd5835 at 2022-09-23 20:46:56

 PROCESSING LAK OPTIONS
    LAK BOUNDARIES HAVE NAMES IN LAST COLUMN.
    FLOWS WILL BE SAVED TO BUDGET FILE SPECIFIED IN OUTPUT CONTROL

 OPENED pleasant.lak.obs
 FILE TYPE:OBS   UNIT 1039   STATUS:OLD                 
 FORMAT:FORMATTED              ACCESS:SEQUENTIAL          
 ACTION:READ                

    LAKE SURFDEP VALUE (  0.1000000    ) SPECIFIED.
    TIME CONVERSION VALUE (   86400.00    ) SPECIFIED.
    LENGTH CONVERSION VALUE (   1.000000    ) SPECIFIED.
 END OF LAK OPTIONS

 PROCESSING LAK DIMENSIONS
    NLAKES =       1
    NOUTLETS =       0
    NTABLES =       1
 END OF LAK DIMENSIONS

 PROCESSING LAK PACKAGEDATA
 END OF LAK PACKAGEDATA


    MAXBOUND =      55

 PROCESSING LAK LAKE_CONNECTIONS
 END OF LAK CONNECTIONDATA

 PROCESSING LAK LAKE_TABLES

 OPENED ./external/600059060_stage_area_volume.dat
 FILE TYPE:LAKE TABLE   UNIT 1040   STATUS:OLD                 
 FORMAT:FORMATTED              ACCESS:SEQUENTIAL          
 ACTION:READ                


 PROCESSING LAK DIMENSIONS
 END OF LAK DIMENSIONS
 #stage volume area

 PROCESSING LAK TABLE
 END OF LAK TABLE
 END OF LAK LAKE_TABLES

 IC -- INITIAL CONDITIONS PACKAGE, VERSION 8, 3/28/2015 INPUT READ FROM UNIT 1006
 # pleasant model version 0+unknown
 # File generated by Flopy version 3.3.6 on 09/23/2022 at 20:46:56.
 # via modflow-setup version 0.post363+gbfd5835 at 2022-09-23 20:46:56
 PROCESSING GRIDDATA

 OPENED ./external/strt_000.dat
 FILE TYPE:OPEN/CLOSE   UNIT 1041   STATUS:OLD                 
 FORMAT:FORMATTED              ACCESS:SEQUENTIAL          
 ACTION:READ                


 OPENED ./external/strt_001.dat
 FILE TYPE:OPEN/CLOSE   UNIT 1042   STATUS:OLD                 
 FORMAT:FORMATTED              ACCESS:SEQUENTIAL          
 ACTION:READ                


 OPENED ./external/strt_002.dat
 FILE TYPE:OPEN/CLOSE   UNIT 1043   STATUS:OLD                 
 FORMAT:FORMATTED              ACCESS:SEQUENTIAL          
 ACTION:READ                


 OPENED ./external/strt_003.dat
 FILE TYPE:OPEN/CLOSE   UNIT 1044   STATUS:OLD                 
 FORMAT:FORMATTED              ACCESS:SEQUENTIAL          
 ACTION:READ                

 END PROCESSING GRIDDATA

 STO -- STORAGE PACKAGE, VERSION 1, 5/19/2014 INPUT READ FROM UNIT 1005


 # pleasant model version 0+unknown
 # File generated by Flopy version 3.3.6 on 09/23/2022 at 20:46:56.
 # via modflow-setup version 0.post363+gbfd5835 at 2022-09-23 20:46:56
 PROCESSING STORAGE OPTIONS
    CELL-BY-CELL FLOW INFORMATION WILL BE SAVED TO BINARY FILE WHENEVER ICBCFL IS NOT ZERO.
 END OF STORAGE OPTIONS
 PROCESSING GRIDDATA

                 ICONVERT = 1

 OPENED ./external/ss_000.dat
 FILE TYPE:OPEN/CLOSE   UNIT 1045   STATUS:OLD                 
 FORMAT:FORMATTED              ACCESS:SEQUENTIAL          
 ACTION:READ                


 OPENED ./external/ss_001.dat
 FILE TYPE:OPEN/CLOSE   UNIT 1046   STATUS:OLD                 
 FORMAT:FORMATTED              ACCESS:SEQUENTIAL          
 ACTION:READ                


 OPENED ./external/ss_002.dat
 FILE TYPE:OPEN/CLOSE   UNIT 1047   STATUS:OLD                 
 FORMAT:FORMATTED              ACCESS:SEQUENTIAL          
 ACTION:READ                


 OPENED ./external/ss_003.dat
 FILE TYPE:OPEN/CLOSE   UNIT 1048   STATUS:OLD                 
 FORMAT:FORMATTED              ACCESS:SEQUENTIAL          
 ACTION:READ                


 OPENED ./external/sy_000.dat
 FILE TYPE:OPEN/CLOSE   UNIT 1049   STATUS:OLD                 
 FORMAT:FORMATTED              ACCESS:SEQUENTIAL          
 ACTION:READ                


 OPENED ./external/sy_001.dat
 FILE TYPE:OPEN/CLOSE   UNIT 1050   STATUS:OLD                 
 FORMAT:FORMATTED              ACCESS:SEQUENTIAL          
 ACTION:READ                


 OPENED ./external/sy_002.dat
 FILE TYPE:OPEN/CLOSE   UNIT 1051   STATUS:OLD                 
 FORMAT:FORMATTED              ACCESS:SEQUENTIAL          
 ACTION:READ                


 OPENED ./external/sy_003.dat
 FILE TYPE:OPEN/CLOSE   UNIT 1052   STATUS:OLD                 
 FORMAT:FORMATTED              ACCESS:SEQUENTIAL          
 ACTION:READ                

 END PROCESSING GRIDDATA

The observation utility is active for "PLEASANT"
 # pleasant model version 0+unknown
 # File generated by Flopy version 3.3.6 on 09/23/2022 at 20:46:56.
 # via modflow-setup version 0.post363+gbfd5835 at 2022-09-23 20:46:56

Processing observation options:

Text output number of digits of precision set to: 10
The PRINT_INPUT option has been specified.


 OBSERVATIONS READ FROM FILE "pleasant.obs"
 ----------------------------------------------------------------------------------------------------------------------------------------------------------------------------------------------------------------------------
 NAME                                     TYPE                                       TIME         LOCATION DATA                              OUTPUT FILENAME                                                                 
 ----------------------------------------------------------------------------------------------------------------------------------------------------------------------------------------------------------------------------
 00400037_UWSP                            CONTINUOUS  HEAD                           ALL TIMES    "  1 21 21"                                pleasant.head.obs                                                               
 00400037_UWSP                            CONTINUOUS  HEAD                           ALL TIMES    "  2 21 21"                                pleasant.head.obs                                                               
 00400037_UWSP                            CONTINUOUS  HEAD                           ALL TIMES    "  3 21 21"                                pleasant.head.obs                                                               
 00400037_UWSP                            CONTINUOUS  HEAD                           ALL TIMES    "  4 21 21"                                pleasant.head.obs                                                               
 00400041_UWSP                            CONTINUOUS  HEAD                           ALL TIMES    "  1 20 60"                                pleasant.head.obs                                                               
 00400041_UWSP                            CONTINUOUS  HEAD                           ALL TIMES    "  2 20 60"                                pleasant.head.obs                                                               
 00400041_UWSP                            CONTINUOUS  HEAD                           ALL TIMES    "  3 20 60"                                pleasant.head.obs                                                               
 00400041_UWSP                            CONTINUOUS  HEAD                           ALL TIMES    "  4 20 60"                                pleasant.head.obs                                                               
 10019264_LK                              CONTINUOUS  HEAD                           ALL TIMES    "  1 38 66"                                pleasant.head.obs                                                               
 10019264_LK                              CONTINUOUS  HEAD                           ALL TIMES    "  2 38 66"                                pleasant.head.obs                                                               
 10019264_LK                              CONTINUOUS  HEAD                           ALL TIMES    "  3 38 66"                                pleasant.head.obs                                                               
 10019264_LK                              CONTINUOUS  HEAD                           ALL TIMES    "  4 38 66"                                pleasant.head.obs                                                               
 10041699_LK                              CONTINUOUS  HEAD                           ALL TIMES    "  1 57 28"                                pleasant.head.obs                                                               
 10041699_LK                              CONTINUOUS  HEAD                           ALL TIMES    "  2 57 28"                                pleasant.head.obs                                                               
 10041699_LK                              CONTINUOUS  HEAD                           ALL TIMES    "  3 57 28"                                pleasant.head.obs                                                               
 10041699_LK                              CONTINUOUS  HEAD                           ALL TIMES    "  4 57 28"                                pleasant.head.obs                                                               
 10051235_LK                              CONTINUOUS  HEAD                           ALL TIMES    "  1 31 45"                                pleasant.head.obs                                                               
 10051235_LK                              CONTINUOUS  HEAD                           ALL TIMES    "  2 31 45"                                pleasant.head.obs                                                               
 10051235_LK                              CONTINUOUS  HEAD                           ALL TIMES    "  3 31 45"                                pleasant.head.obs                                                               
 10051235_LK                              CONTINUOUS  HEAD                           ALL TIMES    "  4 31 45"                                pleasant.head.obs                                                               
 10051238_LK                              CONTINUOUS  HEAD                           ALL TIMES    "  1 42 34"                                pleasant.head.obs                                                               
 10051238_LK                              CONTINUOUS  HEAD                           ALL TIMES    "  2 42 34"                                pleasant.head.obs                                                               
 10051238_LK                              CONTINUOUS  HEAD                           ALL TIMES    "  3 42 34"                                pleasant.head.obs                                                               
 10051238_LK                              CONTINUOUS  HEAD                           ALL TIMES    "  4 42 34"                                pleasant.head.obs                                                               
 10051240_LK                              CONTINUOUS  HEAD                           ALL TIMES    "  1 50 45"                                pleasant.head.obs                                                               
 10051240_LK                              CONTINUOUS  HEAD                           ALL TIMES    "  3 50 45"                                pleasant.head.obs                                                               
 10051240_LK                              CONTINUOUS  HEAD                           ALL TIMES    "  4 50 45"                                pleasant.head.obs                                                               
 5940089321701                            CONTINUOUS  HEAD                           ALL TIMES    "  1 23 47"                                pleasant.head.obs                                                               
 5940089321701                            CONTINUOUS  HEAD                           ALL TIMES    "  2 23 47"                                pleasant.head.obs                                                               
 5940089321701                            CONTINUOUS  HEAD                           ALL TIMES    "  3 23 47"                                pleasant.head.obs                                                               
 5940089321701                            CONTINUOUS  HEAD                           ALL TIMES    "  4 23 47"                                pleasant.head.obs                                                               
 5943089334801                            CONTINUOUS  HEAD                           ALL TIMES    "  1 22 27"                                pleasant.head.obs                                                               
 5943089334801                            CONTINUOUS  HEAD                           ALL TIMES    "  2 22 27"                                pleasant.head.obs                                                               
 5943089334801                            CONTINUOUS  HEAD                           ALL TIMES    "  3 22 27"                                pleasant.head.obs                                                               
 5943089334801                            CONTINUOUS  HEAD                           ALL TIMES    "  4 22 27"                                pleasant.head.obs                                                               
 5946089323001                            CONTINUOUS  HEAD                           ALL TIMES    "  1 21 44"                                pleasant.head.obs                                                               
 5946089323001                            CONTINUOUS  HEAD                           ALL TIMES    "  2 21 44"                                pleasant.head.obs                                                               
 5946089323001                            CONTINUOUS  HEAD                           ALL TIMES    "  3 21 44"                                pleasant.head.obs                                                               
 5946089323001                            CONTINUOUS  HEAD                           ALL TIMES    "  4 21 44"                                pleasant.head.obs                                                               
 5947089351701                            CONTINUOUS  HEAD                           ALL TIMES    "  1 21 7"                                 pleasant.head.obs                                                               
 5947089351701                            CONTINUOUS  HEAD                           ALL TIMES    "  3 21 7"                                 pleasant.head.obs                                                               
 5947089351701                            CONTINUOUS  HEAD                           ALL TIMES    "  4 21 7"                                 pleasant.head.obs                                                               
 AC532                                    CONTINUOUS  HEAD                           ALL TIMES    "  1 4 34"                                 pleasant.head.obs                                                               
 AC532                                    CONTINUOUS  HEAD                           ALL TIMES    "  2 4 34"                                 pleasant.head.obs                                                               
 AC532                                    CONTINUOUS  HEAD                           ALL TIMES    "  3 4 34"                                 pleasant.head.obs                                                               
 AC532                                    CONTINUOUS  HEAD                           ALL TIMES    "  4 4 34"                                 pleasant.head.obs                                                               
 AD154                                    CONTINUOUS  HEAD                           ALL TIMES    "  1 27 33"                                pleasant.head.obs                                                               
 AD154                                    CONTINUOUS  HEAD                           ALL TIMES    "  2 27 33"                                pleasant.head.obs                                                               
 AD154                                    CONTINUOUS  HEAD                           ALL TIMES    "  3 27 33"                                pleasant.head.obs                                                               
 AD154                                    CONTINUOUS  HEAD                           ALL TIMES    "  4 27 33"                                pleasant.head.obs                                                               
 AS281                                    CONTINUOUS  HEAD                           ALL TIMES    "  1 32 41"                                pleasant.head.obs                                                               
 AS281                                    CONTINUOUS  HEAD                           ALL TIMES    "  2 32 41"                                pleasant.head.obs                                                               
 AS281                                    CONTINUOUS  HEAD                           ALL TIMES    "  3 32 41"                                pleasant.head.obs                                                               
 AS281                                    CONTINUOUS  HEAD                           ALL TIMES    "  4 32 41"                                pleasant.head.obs                                                               
 AW959                                    CONTINUOUS  HEAD                           ALL TIMES    "  1 17 3"                                 pleasant.head.obs                                                               
 AW959                                    CONTINUOUS  HEAD                           ALL TIMES    "  3 17 3"                                 pleasant.head.obs                                                               
 AW959                                    CONTINUOUS  HEAD                           ALL TIMES    "  4 17 3"                                 pleasant.head.obs                                                               
 DA063                                    CONTINUOUS  HEAD                           ALL TIMES    "  1 29 35"                                pleasant.head.obs                                                               
 DA063                                    CONTINUOUS  HEAD                           ALL TIMES    "  2 29 35"                                pleasant.head.obs                                                               
 DA063                                    CONTINUOUS  HEAD                           ALL TIMES    "  3 29 35"                                pleasant.head.obs                                                               
 DA063                                    CONTINUOUS  HEAD                           ALL TIMES    "  4 29 35"                                pleasant.head.obs                                                               
 DE137                                    CONTINUOUS  HEAD                           ALL TIMES    "  1 12 60"                                pleasant.head.obs                                                               
 DE137                                    CONTINUOUS  HEAD                           ALL TIMES    "  2 12 60"                                pleasant.head.obs                                                               
 DE137                                    CONTINUOUS  HEAD                           ALL TIMES    "  3 12 60"                                pleasant.head.obs                                                               
 DE137                                    CONTINUOUS  HEAD                           ALL TIMES    "  4 12 60"                                pleasant.head.obs                                                               
 DE144                                    CONTINUOUS  HEAD                           ALL TIMES    "  1 36 36"                                pleasant.head.obs                                                               
 DE144                                    CONTINUOUS  HEAD                           ALL TIMES    "  2 36 36"                                pleasant.head.obs                                                               
 DE144                                    CONTINUOUS  HEAD                           ALL TIMES    "  3 36 36"                                pleasant.head.obs                                                               
 DE144                                    CONTINUOUS  HEAD                           ALL TIMES    "  4 36 36"                                pleasant.head.obs                                                               
 DE519                                    CONTINUOUS  HEAD                           ALL TIMES    "  1 29 35"                                pleasant.head.obs                                                               
 DE519                                    CONTINUOUS  HEAD                           ALL TIMES    "  2 29 35"                                pleasant.head.obs                                                               
 DE519                                    CONTINUOUS  HEAD                           ALL TIMES    "  3 29 35"                                pleasant.head.obs                                                               
 DE519                                    CONTINUOUS  HEAD                           ALL TIMES    "  4 29 35"                                pleasant.head.obs                                                               
 DR137                                    CONTINUOUS  HEAD                           ALL TIMES    "  1 30 27"                                pleasant.head.obs                                                               
 DR137                                    CONTINUOUS  HEAD                           ALL TIMES    "  2 30 27"                                pleasant.head.obs                                                               
 DR137                                    CONTINUOUS  HEAD                           ALL TIMES    "  3 30 27"                                pleasant.head.obs                                                               
 DR137                                    CONTINUOUS  HEAD                           ALL TIMES    "  4 30 27"                                pleasant.head.obs                                                               
 DT239                                    CONTINUOUS  HEAD                           ALL TIMES    "  1 4 57"                                 pleasant.head.obs                                                               
 DT239                                    CONTINUOUS  HEAD                           ALL TIMES    "  2 4 57"                                 pleasant.head.obs                                                               
 DT239                                    CONTINUOUS  HEAD                           ALL TIMES    "  3 4 57"                                 pleasant.head.obs                                                               
 DT239                                    CONTINUOUS  HEAD                           ALL TIMES    "  4 4 57"                                 pleasant.head.obs                                                               
 EQ361                                    CONTINUOUS  HEAD                           ALL TIMES    "  1 32 31"                                pleasant.head.obs                                                               
 EQ361                                    CONTINUOUS  HEAD                           ALL TIMES    "  2 32 31"                                pleasant.head.obs                                                               
 EQ361                                    CONTINUOUS  HEAD                           ALL TIMES    "  3 32 31"                                pleasant.head.obs                                                               
 EQ361                                    CONTINUOUS  HEAD                           ALL TIMES    "  4 32 31"                                pleasant.head.obs                                                               
 FS745                                    CONTINUOUS  HEAD                           ALL TIMES    "  1 11 59"                                pleasant.head.obs                                                               
 FS745                                    CONTINUOUS  HEAD                           ALL TIMES    "  2 11 59"                                pleasant.head.obs                                                               
 FS745                                    CONTINUOUS  HEAD                           ALL TIMES    "  3 11 59"                                pleasant.head.obs                                                               
 FS745                                    CONTINUOUS  HEAD                           ALL TIMES    "  4 11 59"                                pleasant.head.obs                                                               
 FU501                                    CONTINUOUS  HEAD                           ALL TIMES    "  1 31 41"                                pleasant.head.obs                                                               
 FU501                                    CONTINUOUS  HEAD                           ALL TIMES    "  2 31 41"                                pleasant.head.obs                                                               
 FU501                                    CONTINUOUS  HEAD                           ALL TIMES    "  3 31 41"                                pleasant.head.obs                                                               
 FU501                                    CONTINUOUS  HEAD                           ALL TIMES    "  4 31 41"                                pleasant.head.obs                                                               
 GH395                                    CONTINUOUS  HEAD                           ALL TIMES    "  1 6 24"                                 pleasant.head.obs                                                               
 GH395                                    CONTINUOUS  HEAD                           ALL TIMES    "  2 6 24"                                 pleasant.head.obs                                                               
 GH395                                    CONTINUOUS  HEAD                           ALL TIMES    "  3 6 24"                                 pleasant.head.obs                                                               
 GH395                                    CONTINUOUS  HEAD                           ALL TIMES    "  4 6 24"                                 pleasant.head.obs                                                               
 HD878                                    CONTINUOUS  HEAD                           ALL TIMES    "  1 7 58"                                 pleasant.head.obs                                                               
 HD878                                    CONTINUOUS  HEAD                           ALL TIMES    "  2 7 58"                                 pleasant.head.obs                                                               
 HD878                                    CONTINUOUS  HEAD                           ALL TIMES    "  3 7 58"                                 pleasant.head.obs                                                               
 HD878                                    CONTINUOUS  HEAD                           ALL TIMES    "  4 7 58"                                 pleasant.head.obs                                                               
 HS980                                    CONTINUOUS  HEAD                           ALL TIMES    "  1 17 62"                                pleasant.head.obs                                                               
 HS980                                    CONTINUOUS  HEAD                           ALL TIMES    "  2 17 62"                                pleasant.head.obs                                                               
 HS980                                    CONTINUOUS  HEAD                           ALL TIMES    "  3 17 62"                                pleasant.head.obs                                                               
 HS980                                    CONTINUOUS  HEAD                           ALL TIMES    "  4 17 62"                                pleasant.head.obs                                                               
 IE431                                    CONTINUOUS  HEAD                           ALL TIMES    "  1 20 38"                                pleasant.head.obs                                                               
 IE431                                    CONTINUOUS  HEAD                           ALL TIMES    "  2 20 38"                                pleasant.head.obs                                                               
 IE431                                    CONTINUOUS  HEAD                           ALL TIMES    "  3 20 38"                                pleasant.head.obs                                                               
 IE431                                    CONTINUOUS  HEAD                           ALL TIMES    "  4 20 38"                                pleasant.head.obs                                                               
 IE432                                    CONTINUOUS  HEAD                           ALL TIMES    "  1 20 44"                                pleasant.head.obs                                                               
 IE432                                    CONTINUOUS  HEAD                           ALL TIMES    "  2 20 44"                                pleasant.head.obs                                                               
 IE432                                    CONTINUOUS  HEAD                           ALL TIMES    "  3 20 44"                                pleasant.head.obs                                                               
 IE432                                    CONTINUOUS  HEAD                           ALL TIMES    "  4 20 44"                                pleasant.head.obs                                                               
 IG805                                    CONTINUOUS  HEAD                           ALL TIMES    "  1 15 18"                                pleasant.head.obs                                                               
 IG805                                    CONTINUOUS  HEAD                           ALL TIMES    "  2 15 18"                                pleasant.head.obs                                                               
 IG805                                    CONTINUOUS  HEAD                           ALL TIMES    "  3 15 18"                                pleasant.head.obs                                                               
 IG805                                    CONTINUOUS  HEAD                           ALL TIMES    "  4 15 18"                                pleasant.head.obs                                                               
 KN382                                    CONTINUOUS  HEAD                           ALL TIMES    "  1 28 60"                                pleasant.head.obs                                                               
 KN382                                    CONTINUOUS  HEAD                           ALL TIMES    "  2 28 60"                                pleasant.head.obs                                                               
 KN382                                    CONTINUOUS  HEAD                           ALL TIMES    "  3 28 60"                                pleasant.head.obs                                                               
 KN382                                    CONTINUOUS  HEAD                           ALL TIMES    "  4 28 60"                                pleasant.head.obs                                                               
 KO369                                    CONTINUOUS  HEAD                           ALL TIMES    "  1 25 3"                                 pleasant.head.obs                                                               
 KO369                                    CONTINUOUS  HEAD                           ALL TIMES    "  3 25 3"                                 pleasant.head.obs                                                               
 KO369                                    CONTINUOUS  HEAD                           ALL TIMES    "  4 25 3"                                 pleasant.head.obs                                                               
 KP943                                    CONTINUOUS  HEAD                           ALL TIMES    "  1 7 13"                                 pleasant.head.obs                                                               
 KP943                                    CONTINUOUS  HEAD                           ALL TIMES    "  2 7 13"                                 pleasant.head.obs                                                               
 KP943                                    CONTINUOUS  HEAD                           ALL TIMES    "  3 7 13"                                 pleasant.head.obs                                                               
 KP943                                    CONTINUOUS  HEAD                           ALL TIMES    "  4 7 13"                                 pleasant.head.obs                                                               
 KP959                                    CONTINUOUS  HEAD                           ALL TIMES    "  1 14 17"                                pleasant.head.obs                                                               
 KP959                                    CONTINUOUS  HEAD                           ALL TIMES    "  2 14 17"                                pleasant.head.obs                                                               
 KP959                                    CONTINUOUS  HEAD                           ALL TIMES    "  3 14 17"                                pleasant.head.obs                                                               
 KP959                                    CONTINUOUS  HEAD                           ALL TIMES    "  4 14 17"                                pleasant.head.obs                                                               
 KR958                                    CONTINUOUS  HEAD                           ALL TIMES    "  1 15 19"                                pleasant.head.obs                                                               
 KR958                                    CONTINUOUS  HEAD                           ALL TIMES    "  2 15 19"                                pleasant.head.obs                                                               
 KR958                                    CONTINUOUS  HEAD                           ALL TIMES    "  3 15 19"                                pleasant.head.obs                                                               
 KR958                                    CONTINUOUS  HEAD                           ALL TIMES    "  4 15 19"                                pleasant.head.obs                                                               
 LA249                                    CONTINUOUS  HEAD                           ALL TIMES    "  1 23 20"                                pleasant.head.obs                                                               
 LA249                                    CONTINUOUS  HEAD                           ALL TIMES    "  2 23 20"                                pleasant.head.obs                                                               
 LA249                                    CONTINUOUS  HEAD                           ALL TIMES    "  3 23 20"                                pleasant.head.obs                                                               
 LA249                                    CONTINUOUS  HEAD                           ALL TIMES    "  4 23 20"                                pleasant.head.obs                                                               
 LA257                                    CONTINUOUS  HEAD                           ALL TIMES    "  1 19 55"                                pleasant.head.obs                                                               
 LA257                                    CONTINUOUS  HEAD                           ALL TIMES    "  2 19 55"                                pleasant.head.obs                                                               
 LA257                                    CONTINUOUS  HEAD                           ALL TIMES    "  3 19 55"                                pleasant.head.obs                                                               
 LA257                                    CONTINUOUS  HEAD                           ALL TIMES    "  4 19 55"                                pleasant.head.obs                                                               
 LA801                                    CONTINUOUS  HEAD                           ALL TIMES    "  1 14 15"                                pleasant.head.obs                                                               
 LA801                                    CONTINUOUS  HEAD                           ALL TIMES    "  2 14 15"                                pleasant.head.obs                                                               
 LA801                                    CONTINUOUS  HEAD                           ALL TIMES    "  3 14 15"                                pleasant.head.obs                                                               
 LA801                                    CONTINUOUS  HEAD                           ALL TIMES    "  4 14 15"                                pleasant.head.obs                                                               
 LC724                                    CONTINUOUS  HEAD                           ALL TIMES    "  1 11 25"                                pleasant.head.obs                                                               
 LC724                                    CONTINUOUS  HEAD                           ALL TIMES    "  2 11 25"                                pleasant.head.obs                                                               
 LC724                                    CONTINUOUS  HEAD                           ALL TIMES    "  3 11 25"                                pleasant.head.obs                                                               
 LC724                                    CONTINUOUS  HEAD                           ALL TIMES    "  4 11 25"                                pleasant.head.obs                                                               
 LJ884                                    CONTINUOUS  HEAD                           ALL TIMES    "  1 17 16"                                pleasant.head.obs                                                               
 LJ884                                    CONTINUOUS  HEAD                           ALL TIMES    "  2 17 16"                                pleasant.head.obs                                                               
 LJ884                                    CONTINUOUS  HEAD                           ALL TIMES    "  3 17 16"                                pleasant.head.obs                                                               
 LJ884                                    CONTINUOUS  HEAD                           ALL TIMES    "  4 17 16"                                pleasant.head.obs                                                               
 LK_BURNIT_UWSP                           CONTINUOUS  HEAD                           ALL TIMES    "  1 57 29"                                pleasant.head.obs                                                               
 LK_BURNIT_UWSP                           CONTINUOUS  HEAD                           ALL TIMES    "  2 57 29"                                pleasant.head.obs                                                               
 LK_BURNIT_UWSP                           CONTINUOUS  HEAD                           ALL TIMES    "  3 57 29"                                pleasant.head.obs                                                               
 LK_BURNIT_UWSP                           CONTINUOUS  HEAD                           ALL TIMES    "  4 57 29"                                pleasant.head.obs                                                               
 LW001                                    CONTINUOUS  HEAD                           ALL TIMES    "  1 33 31"                                pleasant.head.obs                                                               
 LW001                                    CONTINUOUS  HEAD                           ALL TIMES    "  2 33 31"                                pleasant.head.obs                                                               
 LW001                                    CONTINUOUS  HEAD                           ALL TIMES    "  3 33 31"                                pleasant.head.obs                                                               
 LW001                                    CONTINUOUS  HEAD                           ALL TIMES    "  4 33 31"                                pleasant.head.obs                                                               
 LY769                                    CONTINUOUS  HEAD                           ALL TIMES    "  1 12 46"                                pleasant.head.obs                                                               
 LY769                                    CONTINUOUS  HEAD                           ALL TIMES    "  2 12 46"                                pleasant.head.obs                                                               
 LY769                                    CONTINUOUS  HEAD                           ALL TIMES    "  3 12 46"                                pleasant.head.obs                                                               
 LY769                                    CONTINUOUS  HEAD                           ALL TIMES    "  4 12 46"                                pleasant.head.obs                                                               
 MJ946                                    CONTINUOUS  HEAD                           ALL TIMES    "  1 36 62"                                pleasant.head.obs                                                               
 MJ946                                    CONTINUOUS  HEAD                           ALL TIMES    "  2 36 62"                                pleasant.head.obs                                                               
 MJ946                                    CONTINUOUS  HEAD                           ALL TIMES    "  3 36 62"                                pleasant.head.obs                                                               
 MJ946                                    CONTINUOUS  HEAD                           ALL TIMES    "  4 36 62"                                pleasant.head.obs                                                               
 MM634                                    CONTINUOUS  HEAD                           ALL TIMES    "  1 22 36"                                pleasant.head.obs                                                               
 MM634                                    CONTINUOUS  HEAD                           ALL TIMES    "  2 22 36"                                pleasant.head.obs                                                               
 MM634                                    CONTINUOUS  HEAD                           ALL TIMES    "  3 22 36"                                pleasant.head.obs                                                               
 MM634                                    CONTINUOUS  HEAD                           ALL TIMES    "  4 22 36"                                pleasant.head.obs                                                               
 MT196                                    CONTINUOUS  HEAD                           ALL TIMES    "  1 22 27"                                pleasant.head.obs                                                               
 MT196                                    CONTINUOUS  HEAD                           ALL TIMES    "  2 22 27"                                pleasant.head.obs                                                               
 MT196                                    CONTINUOUS  HEAD                           ALL TIMES    "  3 22 27"                                pleasant.head.obs                                                               
 MT196                                    CONTINUOUS  HEAD                           ALL TIMES    "  4 22 27"                                pleasant.head.obs                                                               
 MX617                                    CONTINUOUS  HEAD                           ALL TIMES    "  1 19 18"                                pleasant.head.obs                                                               
 MX617                                    CONTINUOUS  HEAD                           ALL TIMES    "  2 19 18"                                pleasant.head.obs                                                               
 MX617                                    CONTINUOUS  HEAD                           ALL TIMES    "  3 19 18"                                pleasant.head.obs                                                               
 MX617                                    CONTINUOUS  HEAD                           ALL TIMES    "  4 19 18"                                pleasant.head.obs                                                               
 NE742                                    CONTINUOUS  HEAD                           ALL TIMES    "  1 3 31"                                 pleasant.head.obs                                                               
 NE742                                    CONTINUOUS  HEAD                           ALL TIMES    "  2 3 31"                                 pleasant.head.obs                                                               
 NE742                                    CONTINUOUS  HEAD                           ALL TIMES    "  3 3 31"                                 pleasant.head.obs                                                               
 NE742                                    CONTINUOUS  HEAD                           ALL TIMES    "  4 3 31"                                 pleasant.head.obs                                                               
 NM403                                    CONTINUOUS  HEAD                           ALL TIMES    "  1 7 44"                                 pleasant.head.obs                                                               
 NM403                                    CONTINUOUS  HEAD                           ALL TIMES    "  2 7 44"                                 pleasant.head.obs                                                               
 NM403                                    CONTINUOUS  HEAD                           ALL TIMES    "  3 7 44"                                 pleasant.head.obs                                                               
 NM403                                    CONTINUOUS  HEAD                           ALL TIMES    "  4 7 44"                                 pleasant.head.obs                                                               
 NM422                                    CONTINUOUS  HEAD                           ALL TIMES    "  1 5 52"                                 pleasant.head.obs                                                               
 NM422                                    CONTINUOUS  HEAD                           ALL TIMES    "  2 5 52"                                 pleasant.head.obs                                                               
 NM422                                    CONTINUOUS  HEAD                           ALL TIMES    "  3 5 52"                                 pleasant.head.obs                                                               
 NM422                                    CONTINUOUS  HEAD                           ALL TIMES    "  4 5 52"                                 pleasant.head.obs                                                               
 NM425                                    CONTINUOUS  HEAD                           ALL TIMES    "  1 5 57"                                 pleasant.head.obs                                                               
 NM425                                    CONTINUOUS  HEAD                           ALL TIMES    "  2 5 57"                                 pleasant.head.obs                                                               
 NM425                                    CONTINUOUS  HEAD                           ALL TIMES    "  3 5 57"                                 pleasant.head.obs                                                               
 NM425                                    CONTINUOUS  HEAD                           ALL TIMES    "  4 5 57"                                 pleasant.head.obs                                                               
 NN871                                    CONTINUOUS  HEAD                           ALL TIMES    "  1 6 54"                                 pleasant.head.obs                                                               
 NN871                                    CONTINUOUS  HEAD                           ALL TIMES    "  2 6 54"                                 pleasant.head.obs                                                               
 NN871                                    CONTINUOUS  HEAD                           ALL TIMES    "  3 6 54"                                 pleasant.head.obs                                                               
 NN871                                    CONTINUOUS  HEAD                           ALL TIMES    "  4 6 54"                                 pleasant.head.obs                                                               
 NW247                                    CONTINUOUS  HEAD                           ALL TIMES    "  1 26 37"                                pleasant.head.obs                                                               
 NW247                                    CONTINUOUS  HEAD                           ALL TIMES    "  2 26 37"                                pleasant.head.obs                                                               
 NW247                                    CONTINUOUS  HEAD                           ALL TIMES    "  3 26 37"                                pleasant.head.obs                                                               
 NW247                                    CONTINUOUS  HEAD                           ALL TIMES    "  4 26 37"                                pleasant.head.obs                                                               
 NW269                                    CONTINUOUS  HEAD                           ALL TIMES    "  1 13 14"                                pleasant.head.obs                                                               
 NW269                                    CONTINUOUS  HEAD                           ALL TIMES    "  2 13 14"                                pleasant.head.obs                                                               
 NW269                                    CONTINUOUS  HEAD                           ALL TIMES    "  3 13 14"                                pleasant.head.obs                                                               
 NW269                                    CONTINUOUS  HEAD                           ALL TIMES    "  4 13 14"                                pleasant.head.obs                                                               
 NW287                                    CONTINUOUS  HEAD                           ALL TIMES    "  1 29 38"                                pleasant.head.obs                                                               
 NW287                                    CONTINUOUS  HEAD                           ALL TIMES    "  2 29 38"                                pleasant.head.obs                                                               
 NW287                                    CONTINUOUS  HEAD                           ALL TIMES    "  3 29 38"                                pleasant.head.obs                                                               
 NW287                                    CONTINUOUS  HEAD                           ALL TIMES    "  4 29 38"                                pleasant.head.obs                                                               
 NW294                                    CONTINUOUS  HEAD                           ALL TIMES    "  1 29 34"                                pleasant.head.obs                                                               
 NW294                                    CONTINUOUS  HEAD                           ALL TIMES    "  2 29 34"                                pleasant.head.obs                                                               
 NW294                                    CONTINUOUS  HEAD                           ALL TIMES    "  3 29 34"                                pleasant.head.obs                                                               
 NW294                                    CONTINUOUS  HEAD                           ALL TIMES    "  4 29 34"                                pleasant.head.obs                                                               
 NY036                                    CONTINUOUS  HEAD                           ALL TIMES    "  1 12 19"                                pleasant.head.obs                                                               
 NY036                                    CONTINUOUS  HEAD                           ALL TIMES    "  2 12 19"                                pleasant.head.obs                                                               
 NY036                                    CONTINUOUS  HEAD                           ALL TIMES    "  3 12 19"                                pleasant.head.obs                                                               
 NY036                                    CONTINUOUS  HEAD                           ALL TIMES    "  4 12 19"                                pleasant.head.obs                                                               
 NZ417                                    CONTINUOUS  HEAD                           ALL TIMES    "  1 36 34"                                pleasant.head.obs                                                               
 NZ417                                    CONTINUOUS  HEAD                           ALL TIMES    "  2 36 34"                                pleasant.head.obs                                                               
 NZ417                                    CONTINUOUS  HEAD                           ALL TIMES    "  3 36 34"                                pleasant.head.obs                                                               
 NZ417                                    CONTINUOUS  HEAD                           ALL TIMES    "  4 36 34"                                pleasant.head.obs                                                               
 NZ418                                    CONTINUOUS  HEAD                           ALL TIMES    "  1 36 34"                                pleasant.head.obs                                                               
 NZ418                                    CONTINUOUS  HEAD                           ALL TIMES    "  2 36 34"                                pleasant.head.obs                                                               
 NZ418                                    CONTINUOUS  HEAD                           ALL TIMES    "  3 36 34"                                pleasant.head.obs                                                               
 NZ418                                    CONTINUOUS  HEAD                           ALL TIMES    "  4 36 34"                                pleasant.head.obs                                                               
 OE658                                    CONTINUOUS  HEAD                           ALL TIMES    "  1 36 40"                                pleasant.head.obs                                                               
 OE658                                    CONTINUOUS  HEAD                           ALL TIMES    "  2 36 40"                                pleasant.head.obs                                                               
 OE658                                    CONTINUOUS  HEAD                           ALL TIMES    "  3 36 40"                                pleasant.head.obs                                                               
 OE658                                    CONTINUOUS  HEAD                           ALL TIMES    "  4 36 40"                                pleasant.head.obs                                                               
 OE661                                    CONTINUOUS  HEAD                           ALL TIMES    "  1 27 35"                                pleasant.head.obs                                                               
 OE661                                    CONTINUOUS  HEAD                           ALL TIMES    "  2 27 35"                                pleasant.head.obs                                                               
 OE661                                    CONTINUOUS  HEAD                           ALL TIMES    "  3 27 35"                                pleasant.head.obs                                                               
 OE661                                    CONTINUOUS  HEAD                           ALL TIMES    "  4 27 35"                                pleasant.head.obs                                                               
 OE662                                    CONTINUOUS  HEAD                           ALL TIMES    "  1 36 35"                                pleasant.head.obs                                                               
 OE662                                    CONTINUOUS  HEAD                           ALL TIMES    "  2 36 35"                                pleasant.head.obs                                                               
 OE662                                    CONTINUOUS  HEAD                           ALL TIMES    "  3 36 35"                                pleasant.head.obs                                                               
 OE662                                    CONTINUOUS  HEAD                           ALL TIMES    "  4 36 35"                                pleasant.head.obs                                                               
 OE664                                    CONTINUOUS  HEAD                           ALL TIMES    "  1 35 41"                                pleasant.head.obs                                                               
 OE664                                    CONTINUOUS  HEAD                           ALL TIMES    "  2 35 41"                                pleasant.head.obs                                                               
 OE664                                    CONTINUOUS  HEAD                           ALL TIMES    "  3 35 41"                                pleasant.head.obs                                                               
 OE664                                    CONTINUOUS  HEAD                           ALL TIMES    "  4 35 41"                                pleasant.head.obs                                                               
 OE676                                    CONTINUOUS  HEAD                           ALL TIMES    "  1 9 46"                                 pleasant.head.obs                                                               
 OE676                                    CONTINUOUS  HEAD                           ALL TIMES    "  2 9 46"                                 pleasant.head.obs                                                               
 OE676                                    CONTINUOUS  HEAD                           ALL TIMES    "  3 9 46"                                 pleasant.head.obs                                                               
 OE676                                    CONTINUOUS  HEAD                           ALL TIMES    "  4 9 46"                                 pleasant.head.obs                                                               
 OE677                                    CONTINUOUS  HEAD                           ALL TIMES    "  1 30 40"                                pleasant.head.obs                                                               
 OE677                                    CONTINUOUS  HEAD                           ALL TIMES    "  2 30 40"                                pleasant.head.obs                                                               
 OE677                                    CONTINUOUS  HEAD                           ALL TIMES    "  3 30 40"                                pleasant.head.obs                                                               
 OE677                                    CONTINUOUS  HEAD                           ALL TIMES    "  4 30 40"                                pleasant.head.obs                                                               
 OE679                                    CONTINUOUS  HEAD                           ALL TIMES    "  1 7 45"                                 pleasant.head.obs                                                               
 OE679                                    CONTINUOUS  HEAD                           ALL TIMES    "  2 7 45"                                 pleasant.head.obs                                                               
 OE679                                    CONTINUOUS  HEAD                           ALL TIMES    "  3 7 45"                                 pleasant.head.obs                                                               
 OE679                                    CONTINUOUS  HEAD                           ALL TIMES    "  4 7 45"                                 pleasant.head.obs                                                               
 OG359                                    CONTINUOUS  HEAD                           ALL TIMES    "  1 30 36"                                pleasant.head.obs                                                               
 OG359                                    CONTINUOUS  HEAD                           ALL TIMES    "  2 30 36"                                pleasant.head.obs                                                               
 OG359                                    CONTINUOUS  HEAD                           ALL TIMES    "  3 30 36"                                pleasant.head.obs                                                               
 OG359                                    CONTINUOUS  HEAD                           ALL TIMES    "  4 30 36"                                pleasant.head.obs                                                               
 OR193                                    CONTINUOUS  HEAD                           ALL TIMES    "  1 31 14"                                pleasant.head.obs                                                               
 OR193                                    CONTINUOUS  HEAD                           ALL TIMES    "  2 31 14"                                pleasant.head.obs                                                               
 OR193                                    CONTINUOUS  HEAD                           ALL TIMES    "  3 31 14"                                pleasant.head.obs                                                               
 OR193                                    CONTINUOUS  HEAD                           ALL TIMES    "  4 31 14"                                pleasant.head.obs                                                               
 PSNT01_GW                                CONTINUOUS  HEAD                           ALL TIMES    "  1 34 31"                                pleasant.head.obs                                                               
 PSNT01_GW                                CONTINUOUS  HEAD                           ALL TIMES    "  2 34 31"                                pleasant.head.obs                                                               
 PSNT01_GW                                CONTINUOUS  HEAD                           ALL TIMES    "  3 34 31"                                pleasant.head.obs                                                               
 PSNT01_GW                                CONTINUOUS  HEAD                           ALL TIMES    "  4 34 31"                                pleasant.head.obs                                                               
 PSNT03_GW                                CONTINUOUS  HEAD                           ALL TIMES    "  1 36 40"                                pleasant.head.obs                                                               
 PSNT03_GW                                CONTINUOUS  HEAD                           ALL TIMES    "  2 36 40"                                pleasant.head.obs                                                               
 PSNT03_GW                                CONTINUOUS  HEAD                           ALL TIMES    "  3 36 40"                                pleasant.head.obs                                                               
 PSNT03_GW                                CONTINUOUS  HEAD                           ALL TIMES    "  4 36 40"                                pleasant.head.obs                                                               
 PSNT05_GW                                CONTINUOUS  HEAD                           ALL TIMES    "  1 32 41"                                pleasant.head.obs                                                               
 PSNT05_GW                                CONTINUOUS  HEAD                           ALL TIMES    "  2 32 41"                                pleasant.head.obs                                                               
 PSNT05_GW                                CONTINUOUS  HEAD                           ALL TIMES    "  3 32 41"                                pleasant.head.obs                                                               
 PSNT05_GW                                CONTINUOUS  HEAD                           ALL TIMES    "  4 32 41"                                pleasant.head.obs                                                               
 PSNT06_GW                                CONTINUOUS  HEAD                           ALL TIMES    "  1 38 38"                                pleasant.head.obs                                                               
 PSNT06_GW                                CONTINUOUS  HEAD                           ALL TIMES    "  2 38 38"                                pleasant.head.obs                                                               
 PSNT06_GW                                CONTINUOUS  HEAD                           ALL TIMES    "  3 38 38"                                pleasant.head.obs                                                               
 PSNT06_GW                                CONTINUOUS  HEAD                           ALL TIMES    "  4 38 38"                                pleasant.head.obs                                                               
 PSNT07_GW                                CONTINUOUS  HEAD                           ALL TIMES    "  1 37 36"                                pleasant.head.obs                                                               
 PSNT07_GW                                CONTINUOUS  HEAD                           ALL TIMES    "  2 37 36"                                pleasant.head.obs                                                               
 PSNT07_GW                                CONTINUOUS  HEAD                           ALL TIMES    "  3 37 36"                                pleasant.head.obs                                                               
 PSNT07_GW                                CONTINUOUS  HEAD                           ALL TIMES    "  4 37 36"                                pleasant.head.obs                                                               
 PSNT08_GW                                CONTINUOUS  HEAD                           ALL TIMES    "  1 38 34"                                pleasant.head.obs                                                               
 PSNT08_GW                                CONTINUOUS  HEAD                           ALL TIMES    "  2 38 34"                                pleasant.head.obs                                                               
 PSNT08_GW                                CONTINUOUS  HEAD                           ALL TIMES    "  3 38 34"                                pleasant.head.obs                                                               
 PSNT08_GW                                CONTINUOUS  HEAD                           ALL TIMES    "  4 38 34"                                pleasant.head.obs                                                               
 PSNT09_GW                                CONTINUOUS  HEAD                           ALL TIMES    "  1 38 31"                                pleasant.head.obs                                                               
 PSNT09_GW                                CONTINUOUS  HEAD                           ALL TIMES    "  2 38 31"                                pleasant.head.obs                                                               
 PSNT09_GW                                CONTINUOUS  HEAD                           ALL TIMES    "  3 38 31"                                pleasant.head.obs                                                               
 PSNT09_GW                                CONTINUOUS  HEAD                           ALL TIMES    "  4 38 31"                                pleasant.head.obs                                                               
 PSNT10_GW                                CONTINUOUS  HEAD                           ALL TIMES    "  1 33 42"                                pleasant.head.obs                                                               
 PSNT10_GW                                CONTINUOUS  HEAD                           ALL TIMES    "  2 33 42"                                pleasant.head.obs                                                               
 PSNT10_GW                                CONTINUOUS  HEAD                           ALL TIMES    "  3 33 42"                                pleasant.head.obs                                                               
[...]
    4102    (1,61,22)             0.0000000     
    4103    (1,61,23)             0.0000000     
    4104    (1,61,24)             0.0000000     
    4105    (1,61,25)             0.0000000     
    4106    (1,61,26)             0.0000000     
    4107    (4,61,27)             0.0000000     
    4108    (1,61,28)             0.0000000     
    4109    (1,61,29)             0.0000000     
    4110    (1,61,30)             0.0000000     
    4111    (1,61,31)             0.0000000     
    4112    (1,61,32)             0.0000000     
    4113    (1,61,33)             0.0000000     
    4114    (1,61,34)             0.0000000     
    4115    (1,61,35)             0.0000000     
    4116    (1,61,36)             0.0000000     
    4117    (1,61,37)             0.0000000     
    4118    (1,61,38)             0.0000000     
    4119    (1,61,39)             0.0000000     
    4120    (1,61,40)             0.0000000     
    4121    (1,61,41)             0.0000000     
    4122    (1,61,42)             0.0000000     
    4123    (1,61,43)             0.0000000     
    4124    (1,61,44)             0.0000000     
    4125    (1,61,45)             0.0000000     
    4126    (1,61,46)             0.0000000     
    4127    (1,61,47)             0.0000000     
    4128    (1,61,48)             0.0000000     
    4129    (1,61,49)             0.0000000     
    4130    (1,61,50)             0.0000000     
    4131    (1,61,51)             0.0000000     
    4132    (1,61,52)             0.0000000     
    4133    (1,61,53)             0.0000000     
    4134    (1,61,54)             0.0000000     
    4135    (1,61,55)             0.0000000     
    4136    (1,61,56)             0.0000000     
    4137    (1,61,57)             0.0000000     
    4138    (1,61,58)             0.0000000     
    4139    (1,61,59)             0.0000000     
    4140    (1,61,60)             0.0000000     
    4141    (1,61,61)             0.0000000     
    4142    (1,61,62)             0.0000000     
    4143    (1,61,63)             0.0000000     
    4144    (1,61,64)             0.0000000     
    4145    (1,61,65)             0.0000000     
    4146    (1,61,66)             0.0000000     
    4147    (1,61,67)             0.0000000     
    4148    (1,61,68)             0.0000000     
    4149    (1,62,1)              0.0000000     
    4150    (1,62,2)              0.0000000     
    4151    (1,62,3)              0.0000000     
    4152    (1,62,4)              0.0000000     
    4153    (1,62,5)              0.0000000     
    4154    (1,62,6)              0.0000000     
    4155    (1,62,7)              0.0000000     
    4156    (1,62,8)              0.0000000     
    4157    (1,62,9)              0.0000000     
    4158    (1,62,10)             0.0000000     
    4159    (1,62,11)             0.0000000     
    4160    (1,62,12)             0.0000000     
    4161    (1,62,13)             0.0000000     
    4162    (1,62,14)             0.0000000     
    4163    (1,62,15)             0.0000000     
    4164    (1,62,16)             0.0000000     
    4165    (1,62,17)             0.0000000     
    4166    (1,62,18)             0.0000000     
    4167    (4,62,19)             0.0000000     
    4168    (4,62,20)             0.0000000     
    4169    (4,62,21)             0.0000000     
    4170    (1,62,22)             0.0000000     
    4171    (1,62,23)             0.0000000     
    4172    (1,62,24)             0.0000000     
    4173    (1,62,25)             0.0000000     
    4174    (1,62,26)             0.0000000     
    4175    (1,62,27)             0.0000000     
    4176    (1,62,28)             0.0000000     
    4177    (1,62,29)             0.0000000     
    4178    (1,62,30)             0.0000000     
    4179    (1,62,31)             0.0000000     
    4180    (1,62,32)             0.0000000     
    4181    (1,62,33)             0.0000000     
    4182    (1,62,34)             0.0000000     
    4183    (1,62,35)             0.0000000     
    4184    (1,62,36)             0.0000000     
    4185    (1,62,37)             0.0000000     
    4186    (1,62,38)             0.0000000     
    4187    (1,62,39)             0.0000000     
    4188    (1,62,40)             0.0000000     
    4189    (1,62,41)             0.0000000     
    4190    (1,62,42)             0.0000000     
    4191    (1,62,43)             0.0000000     
    4192    (1,62,44)             0.0000000     
    4193    (1,62,45)             0.0000000     
    4194    (1,62,46)             0.0000000     
    4195    (1,62,47)             0.0000000     
    4196    (1,62,48)             0.0000000     
    4197    (1,62,49)             0.0000000     
    4198    (1,62,50)             0.0000000     
    4199    (1,62,51)             0.0000000     
    4200    (1,62,52)             0.0000000     
    4201    (1,62,53)             0.0000000     
    4202    (1,62,54)             0.0000000     
    4203    (1,62,55)             0.0000000     
    4204    (1,62,56)             0.0000000     
    4205    (1,62,57)             0.0000000     
    4206    (1,62,58)             0.0000000     
    4207    (1,62,59)             0.0000000     
    4208    (1,62,60)             0.0000000     
    4209    (1,62,61)             0.0000000     
    4210    (1,62,62)             0.0000000     
    4211    (1,62,63)             0.0000000     
    4212    (1,62,64)             0.0000000     
    4213    (1,62,65)             0.0000000     
    4214    (1,62,66)             0.0000000     
    4215    (1,62,67)             0.0000000     
    4216    (1,62,68)             0.0000000     
    4217    (1,63,1)              0.0000000     
    4218    (1,63,2)              0.0000000     
    4219    (1,63,3)              0.0000000     
    4220    (1,63,4)              0.0000000     
    4221    (1,63,5)              0.0000000     
    4222    (1,63,6)              0.0000000     
    4223    (1,63,7)              0.0000000     
    4224    (1,63,8)              0.0000000     
    4225    (1,63,9)              0.0000000     
    4226    (1,63,10)             0.0000000     
    4227    (1,63,11)             0.0000000     
    4228    (1,63,12)             0.0000000     
    4229    (1,63,13)             0.0000000     
    4230    (1,63,14)             0.0000000     
    4231    (1,63,15)             0.0000000     
    4232    (1,63,16)             0.0000000     
    4233    (1,63,17)             0.0000000     
    4234    (4,63,18)             0.0000000     
    4235    (1,63,19)             0.0000000     
    4236    (1,63,20)             0.0000000     
    4237    (4,63,21)             0.0000000     
    4238    (1,63,22)             0.0000000     
    4239    (1,63,23)             0.0000000     
    4240    (1,63,24)             0.0000000     
    4241    (1,63,25)             0.0000000     
    4242    (1,63,26)             0.0000000     
    4243    (1,63,27)             0.0000000     
    4244    (1,63,28)             0.0000000     
    4245    (1,63,29)             0.0000000     
    4246    (1,63,30)             0.0000000     
    4247    (1,63,31)             0.0000000     
    4248    (1,63,32)             0.0000000     
    4249    (1,63,33)             0.0000000     
    4250    (1,63,34)             0.0000000     
    4251    (1,63,35)             0.0000000     
    4252    (1,63,36)             0.0000000     
    4253    (1,63,37)             0.0000000     
    4254    (1,63,38)             0.0000000     
    4255    (1,63,39)             0.0000000     
    4256    (1,63,40)             0.0000000     
    4257    (1,63,41)             0.0000000     
    4258    (1,63,42)             0.0000000     
    4259    (1,63,43)             0.0000000     
    4260    (1,63,44)             0.0000000     
    4261    (1,63,45)             0.0000000     
    4262    (1,63,46)             0.0000000     
    4263    (1,63,47)             0.0000000     
    4264    (1,63,48)             0.0000000     
    4265    (1,63,49)             0.0000000     
    4266    (1,63,50)             0.0000000     
    4267    (1,63,51)             0.0000000     
    4268    (1,63,52)             0.0000000     
    4269    (1,63,53)             0.0000000     
    4270    (1,63,54)             0.0000000     
    4271    (1,63,55)             0.0000000     
    4272    (1,63,56)             0.0000000     
    4273    (1,63,57)             0.0000000     
    4274    (1,63,58)             0.0000000     
    4275    (1,63,59)             0.0000000     
    4276    (1,63,60)             0.0000000     
    4277    (1,63,61)             0.0000000     
    4278    (1,63,62)             0.0000000     
    4279    (1,63,63)             0.0000000     
    4280    (1,63,64)             0.0000000     
    4281    (1,63,65)             0.0000000     
    4282    (1,63,66)             0.0000000     
    4283    (1,63,67)             0.0000000     
    4284    (1,63,68)             0.0000000     
    4285    (1,64,1)              0.0000000     
    4286    (1,64,2)              0.0000000     
    4287    (1,64,3)              0.0000000     
    4288    (1,64,4)              0.0000000     
    4289    (1,64,5)              0.0000000     
    4290    (1,64,6)              0.0000000     
    4291    (1,64,7)              0.0000000     
    4292    (1,64,8)              0.0000000     
    4293    (1,64,9)              0.0000000     
    4294    (1,64,10)             0.0000000     
    4295    (4,64,11)             0.0000000     
    4296    (1,64,12)             0.0000000     
    4297    (1,64,13)             0.0000000     
    4298    (1,64,14)             0.0000000     
    4299    (1,64,15)             0.0000000     
    4300    (1,64,16)             0.0000000     
    4301    (1,64,17)             0.0000000     
    4302    (1,64,18)             0.0000000     
    4303    (1,64,19)             0.0000000     
    4304    (1,64,20)             0.0000000     
    4305    (4,64,21)             0.0000000     
    4306    (4,64,22)             0.0000000     
    4307    (1,64,23)             0.0000000     
    4308    (1,64,24)             0.0000000     
    4309    (1,64,25)             0.0000000     
    4310    (1,64,26)             0.0000000     
    4311    (1,64,27)             0.0000000     
    4312    (1,64,28)             0.0000000     
    4313    (1,64,29)             0.0000000     
    4314    (1,64,30)             0.0000000     
    4315    (1,64,31)             0.0000000     
    4316    (1,64,32)             0.0000000     
    4317    (1,64,33)             0.0000000     
    4318    (1,64,34)             0.0000000     
    4319    (1,64,35)             0.0000000     
    4320    (1,64,36)             0.0000000     
    4321    (1,64,37)             0.0000000     
    4322    (1,64,38)             0.0000000     
    4323    (1,64,39)             0.0000000     
    4324    (1,64,40)             0.0000000     
    4325    (1,64,41)             0.0000000     
    4326    (1,64,42)             0.0000000     
    4327    (1,64,43)             0.0000000     
    4328    (1,64,44)             0.0000000     
    4329    (1,64,45)             0.0000000     
    4330    (1,64,46)             0.0000000     
    4331    (1,64,47)             0.0000000     
    4332    (1,64,48)             0.0000000     
    4333    (1,64,49)             0.0000000     
    4334    (1,64,50)             0.0000000     
    4335    (1,64,51)             0.0000000     
    4336    (1,64,52)             0.0000000     
    4337    (1,64,53)             0.0000000     
    4338    (1,64,54)             0.0000000     
    4339    (1,64,55)             0.0000000     
    4340    (1,64,56)             0.0000000     
    4341    (1,64,57)             0.0000000     
    4342    (1,64,58)             0.0000000     
    4343    (1,64,59)             0.0000000     
    4344    (1,64,60)             0.0000000     
    4345    (1,64,61)             0.0000000     
    4346    (1,64,62)             0.0000000     
    4347    (1,64,63)             0.0000000     
    4348    (1,64,64)             0.0000000     
    4349    (1,64,65)             0.0000000     
    4350    (1,64,66)             0.0000000     
    4351    (1,64,67)             0.0000000     
    4352    (1,64,68)             0.0000000     
 -----------------------------------------------




 HEAD WILL BE SAVED ON UNIT 1056 AT END OF TIME STEP    1, STRESS PERIOD   13


  SFR_0 BUDGET FOR ENTIRE MODEL AT END OF TIME STEP    1, STRESS PERIOD  13
  ------------------------------------------------------------------------------

     CUMULATIVE SFR_0      L**3       RATES FOR THIS TIME STEP      L**3/T
     ------------------                 ------------------------

           IN:                                      IN:
           ---                                      ---
                 GWF =     4019015.8713                   GWF =        9381.4826
            RAINFALL =           0.0000              RAINFALL =           0.0000
         EVAPORATION =           0.0000           EVAPORATION =           0.0000
              RUNOFF =           0.0000                RUNOFF =           0.0000
          EXT-INFLOW =           0.0000            EXT-INFLOW =           0.0000
         EXT-OUTFLOW =           0.0000           EXT-OUTFLOW =           0.0000
             STORAGE =           0.0000               STORAGE =           0.0000
           AUXILIARY =           0.0000             AUXILIARY =           0.0000

            TOTAL IN =     4019015.8713              TOTAL IN =        9381.4826

          OUT:                                     OUT:
          ----                                     ----
                 GWF =      243255.6452                   GWF =        1327.4648
            RAINFALL =           0.0000              RAINFALL =           0.0000
         EVAPORATION =           0.0000           EVAPORATION =           0.0000
              RUNOFF =           0.0000                RUNOFF =           0.0000
          EXT-INFLOW =           0.0000            EXT-INFLOW =           0.0000
         EXT-OUTFLOW =     3775760.2261           EXT-OUTFLOW =        8054.0178
             STORAGE =           0.0000               STORAGE =           0.0000
           AUXILIARY =           0.0000             AUXILIARY =           0.0000

           TOTAL OUT =     4019015.8713             TOTAL OUT =        9381.4826

            IN - OUT =       1.3970E-09              IN - OUT =       1.8190E-12

 PERCENT DISCREPANCY =           0.00     PERCENT DISCREPANCY =           0.00



  LAK_0 BUDGET FOR ENTIRE MODEL AT END OF TIME STEP    1, STRESS PERIOD  13
  ------------------------------------------------------------------------------

     CUMULATIVE LAK_0      L**3       RATES FOR THIS TIME STEP      L**3/T
     ------------------                 ------------------------

           IN:                                      IN:
           ---                                      ---
                 GWF =      877804.7293                   GWF =        2258.4635
            RAINFALL =      590041.1936              RAINFALL =        1238.6433
         EVAPORATION =           0.0000           EVAPORATION =           0.0000
              RUNOFF =           0.0000                RUNOFF =           0.0000
          EXT-INFLOW =           0.0000            EXT-INFLOW =           0.0000
          WITHDRAWAL =           0.0000            WITHDRAWAL =           0.0000
         EXT-OUTFLOW =           0.0000           EXT-OUTFLOW =           0.0000
             STORAGE =      411586.1415               STORAGE =         313.8027
            CONSTANT =           0.0000              CONSTANT =           0.0000

            TOTAL IN =     1879432.0645              TOTAL IN =        3810.9094

          OUT:                                     OUT:
          ----                                     ----
                 GWF =     1265806.2758                   GWF =        3598.1102
            RAINFALL =           0.0000              RAINFALL =           0.0000
         EVAPORATION =      511363.4388           EVAPORATION =         213.0058
              RUNOFF =           0.0000                RUNOFF =           0.0000
          EXT-INFLOW =           0.0000            EXT-INFLOW =           0.0000
          WITHDRAWAL =           0.0000            WITHDRAWAL =           0.0000
         EXT-OUTFLOW =           0.0000           EXT-OUTFLOW =           0.0000
             STORAGE =      102204.4331               STORAGE =           0.0000
            CONSTANT =           0.0000              CONSTANT =           0.0000

           TOTAL OUT =     1879374.1477             TOTAL OUT =        3811.1160

            IN - OUT =          57.9168              IN - OUT =          -0.2066

 PERCENT DISCREPANCY =           0.00     PERCENT DISCREPANCY =          -0.01



  VOLUME BUDGET FOR ENTIRE MODEL AT END OF TIME STEP    1, STRESS PERIOD  13
  ---------------------------------------------------------------------------------------------------

     CUMULATIVE VOLUME      L**3       RATES FOR THIS TIME STEP      L**3/T          PACKAGE NAME    
     ------------------                 ------------------------                     ----------------

           IN:                                      IN:
           ---                                      ---
              STO-SS =        2458.8568                STO-SS =           6.0527     STORAGE                          
              STO-SY =     9137133.6768                STO-SY =       25337.1078     STORAGE                          
                 WEL =           0.0000                   WEL =           0.0000     WEL_0                            
                RCHA =     7018819.8514                  RCHA =        2715.8374     RCHA_0                           
                 CHD =     8362276.7990                   CHD =       21061.3131     CHD_0                            
                 SFR =      243255.6342                   SFR =        1327.4658     SFR_0                            
                 LAK =     1265806.2758                   LAK =        3598.1102     LAK_0                            

            TOTAL IN =    26029751.0940              TOTAL IN =       54045.8870

          OUT:                                     OUT:
          ----                                     ----
              STO-SS =        1030.0222                STO-SS =       2.6220E-02     STORAGE                          
              STO-SY =     3539107.4739                STO-SY =         240.2861     STORAGE                          
                 WEL =     1654908.9103                   WEL =           0.0000     WEL_0                            
                RCHA =           0.0000                  RCHA =           0.0000     RCHA_0                           
                 CHD =    15937905.8743                   CHD =       42165.9454     CHD_0                            
                 SFR =     4019022.5106                   SFR =        9381.4772     SFR_0                            
                 LAK =      877804.7293                   LAK =        2258.4635     LAK_0                            

           TOTAL OUT =    26029779.5206             TOTAL OUT =       54046.1984

            IN - OUT =         -28.4267              IN - OUT =          -0.3114

 PERCENT DISCREPANCY =          -0.00     PERCENT DISCREPANCY =          -0.00




         TIME SUMMARY AT END OF TIME STEP    1 IN STRESS PERIOD   13
                    SECONDS     MINUTES      HOURS       DAYS        YEARS
                    -----------------------------------------------------------
   TIME STEP LENGTH 2.67840E+06  44640.      744.00      31.000     8.48734E-02
 STRESS PERIOD TIME 2.67840E+06  44640.      744.00      31.000     8.48734E-02
         TOTAL TIME 3.17088E+07 5.28480E+05  8808.0      367.00      1.0048    


end timestep

