                                   MODFLOW 6
                U.S. GEOLOGICAL SURVEY MODULAR HYDROLOGIC MODEL
                          GROUNDWATER FLOW MODEL (GWF)
                            VERSION 6.4.2 06/28/2023

   MODFLOW 6 compiled Jul 05 2023 20:31:54 with Intel(R) Fortran Intel(R) 64
   Compiler Classic for applications running on Intel(R) 64, Version 2021.7.0
                             Build 20220726_000000

This software has been approved for release by the U.S. Geological 
Survey (USGS). Although the software has been subjected to rigorous 
review, the USGS reserves the right to update the software as needed 
pursuant to further analysis and review. No warranty, expressed or 
implied, is made by the USGS or the U.S. Government as to the 
functionality of the software and related material nor shall the 
fact of release constitute any such warranty. Furthermore, the 
software is released on condition that neither the USGS nor the U.S. 
Government shall be held liable for any damages resulting from its 
authorized or unauthorized use. Also refer to the USGS Water 
Resources Software User Rights Notice for complete use, copyright, 
and distribution information.


As a work of the United States Government, this USGS product is 
in the public domain within the United States. You can copy, 
modify, distribute, and perform the work, even for commercial 
purposes, all without asking permission. Additionally, USGS 
waives copyright and related rights in the work worldwide 
through CC0 1.0 Universal Public Domain Dedication 
(https://creativecommons.org/publicdomain/zero/1.0/).

The following GNU Lesser General Public License (LGPL) libraries
are used in this USGS product:

    SPARSKIT version 2.0
      ilut, luson, and qsplit 
      (https://www-users.cse.umn.edu/~saad/software/SPARSKIT/)

    RCM - Reverse Cuthill McKee Ordering
      (https://people.math.sc.edu/Burkardt/f_src/rcm/rcm.html)

    BLAS - Basic Linear Algebra Subprograms Level 1
      (https://people.math.sc.edu/Burkardt/f_src/blas1_d/blas1_d.html)

    SPARSEKIT - Sparse Matrix Utility Package
      amux, dperm, dvperm, rperm, and cperm
      (https://people.sc.fsu.edu/~jburkardt/f77_src/sparsekit/sparsekit.html)

The following BSD-3 License libraries are used in this USGS product:

    Modern Fortran DAG Library
      Copyright (c) 2018, Jacob Williams
      All rights reserved.
      (https://github.com/jacobwilliams/daglib)

MODFLOW 6 compiler options: /O2 /heap-arrays:0 /fpe:0 /traceback /nologo /fpp
/c /module:win64\mod_mf6\ /object:win64\obj_mf6\

System command used to initiate simulation:
C:\A\envs\pyclass\Scripts\mf6.exe

MODFLOW was compiled using uniform precision.

Real Variables
  KIND: 8
  TINY (smallest non-zero value):    2.225074-308
  HUGE (largest value):    1.797693+308
  PRECISION: 15
  SIZE IN BITS: 64

Integer Variables
  KIND: 4
  HUGE (largest value): 2147483647
  SIZE IN BITS: 32

Long Integer Variables
  KIND: 8
  HUGE (largest value): 9223372036854775807
  SIZE IN BITS: 64

Logical Variables
  KIND: 4
  SIZE IN BITS: 32
 
 NAMEFILE OPTIONS:
 END NAMEFILE OPTIONS:

 DIS -- STRUCTURED GRID DISCRETIZATION PACKAGE, VERSION 2 : 3/27/2014 - INPUT READ FROM MEMPATH: __INPUT__/MUMODEL/DIS                             


 NPF -- NODE PROPERTY FLOW PACKAGE, VERSION 1, 3/30/2015 INPUT READ FROM MEMPATH: __INPUT__/MUMODEL/NPF                             

 Setting Discretization Options
    Model length unit [0=UND, 1=FEET, 2=METERS, 3=CENTIMETERS] set as 0
 End Setting Discretization Options

 Setting Discretization Dimensions
    NLAY = 1
    NROW = 21
    NCOL = 9
 End Setting Discretization Dimensions

 Setting Discretization Griddata
    DELR set from input file
    DELC set from input file
    TOP set from input file
    BOTM set from input file
 End Setting Discretization Griddata

 Setting NPF Options
    Cell-by-cell flow information will be saved to binary file whenever ICBCFL is not zero.
    Vertical flow will be adjusted for perched conditions.
    Vertical conductance varies with water table.
    Vertical conductance accounts for dewatered portion of an underlying cell.
 End Setting NPF Options

 Setting NPF Griddata
    ICELLTYPE set from input file
    K set from input file
    K33 not provided.  Setting K33 = K.
    K22 not provided.  Setting K22 = K.
 End Setting NPF Griddata


 WEL   -- WEL PACKAGE, VERSION 8, 2/22/2014 INPUT READ FROM UNIT 1008
 # File generated by Flopy version 3.5.0 on 02/25/2024 at 12:29:55.

 PROCESSING WEL OPTIONS
    AUXILIARY WEL VARIABLE: IFACE           
    LISTS OF WEL CELLS WILL BE PRINTED.
    WEL FLOWS WILL BE PRINTED TO LISTING FILE.
    FLOWS WILL BE SAVED TO BUDGET FILE SPECIFIED IN OUTPUT CONTROL
 END OF WEL OPTIONS

 PROCESSING WEL DIMENSIONS
    MAXBOUND =       3
 END OF WEL DIMENSIONS

 RCH   -- RCH PACKAGE, VERSION 8, 2/22/2014 INPUT READ FROM UNIT 1009
 # File generated by Flopy version 3.5.0 on 02/25/2024 at 12:29:51.

 PROCESSING RCH OPTIONS
    RECHARGE INPUT WILL BE READ AS ARRAY(S).
    FLOWS WILL BE SAVED TO BUDGET FILE SPECIFIED IN OUTPUT CONTROL
 END OF RCHA OPTIONS

 CHD   -- CHD PACKAGE, VERSION 8, 2/22/2014 INPUT READ FROM UNIT 1010
 # File generated by Flopy version 3.5.0 on 02/25/2024 at 12:29:34.

 PROCESSING CHD OPTIONS
    LISTS OF CHD CELLS WILL BE PRINTED.
    CHD FLOWS WILL BE PRINTED TO LISTING FILE.
 END OF CHD OPTIONS

 PROCESSING CHD DIMENSIONS
    MAXBOUND =      18
 END OF CHD DIMENSIONS

 IC -- INITIAL CONDITIONS PACKAGE, VERSION 8, 3/28/2015 INPUT READ FROM UNIT 1006
 # File generated by Flopy version 3.5.0 on 02/25/2024 at 12:29:34.
 PROCESSING GRIDDATA

     INITIAL HEAD FOR LAYER 1

               1          2          3          4          5          6          7          8          9
 .......................................................................................................
   1   1.000E+03  1.000E+03  1.000E+03  1.000E+03  1.000E+03  1.000E+03  1.000E+03  1.000E+03  1.000E+03
   2   1.100E+03  1.100E+03  1.100E+03  1.100E+03  1.100E+03  1.100E+03  1.100E+03  1.100E+03  1.100E+03
   3   1.100E+03  1.100E+03  1.100E+03  1.100E+03  1.100E+03  1.100E+03  1.100E+03  1.100E+03  1.100E+03
   4   1.100E+03  1.100E+03  1.100E+03  1.100E+03  1.100E+03  1.100E+03  1.100E+03  1.100E+03  1.100E+03
   5   1.100E+03  1.100E+03  1.100E+03  1.100E+03  1.100E+03  1.100E+03  1.100E+03  1.100E+03  1.100E+03
   6   1.100E+03  1.100E+03  1.100E+03  1.100E+03  1.100E+03  1.100E+03  1.100E+03  1.100E+03  1.100E+03
   7   1.100E+03  1.100E+03  1.100E+03  1.100E+03  1.100E+03  1.100E+03  1.100E+03  1.100E+03  1.100E+03
   8   1.100E+03  1.100E+03  1.100E+03  1.100E+03  1.100E+03  1.100E+03  1.100E+03  1.100E+03  1.100E+03
   9   1.100E+03  1.100E+03  1.100E+03  1.100E+03  1.100E+03  1.100E+03  1.100E+03  1.100E+03  1.100E+03
  10   1.100E+03  1.100E+03  1.100E+03  1.100E+03  1.100E+03  1.100E+03  1.100E+03  1.100E+03  1.100E+03
  11   1.100E+03  1.100E+03  1.100E+03  1.100E+03  1.100E+03  1.100E+03  1.100E+03  1.100E+03  1.100E+03
  12   1.100E+03  1.100E+03  1.100E+03  1.100E+03  1.100E+03  1.100E+03  1.100E+03  1.100E+03  1.100E+03
  13   1.100E+03  1.100E+03  1.100E+03  1.100E+03  1.100E+03  1.100E+03  1.100E+03  1.100E+03  1.100E+03
  14   1.100E+03  1.100E+03  1.100E+03  1.100E+03  1.100E+03  1.100E+03  1.100E+03  1.100E+03  1.100E+03
  15   1.100E+03  1.100E+03  1.100E+03  1.100E+03  1.100E+03  1.100E+03  1.100E+03  1.100E+03  1.100E+03
  16   1.100E+03  1.100E+03  1.100E+03  1.100E+03  1.100E+03  1.100E+03  1.100E+03  1.100E+03  1.100E+03
  17   1.100E+03  1.100E+03  1.100E+03  1.100E+03  1.100E+03  1.100E+03  1.100E+03  1.100E+03  1.100E+03
  18   1.100E+03  1.100E+03  1.100E+03  1.100E+03  1.100E+03  1.100E+03  1.100E+03  1.100E+03  1.100E+03
  19   1.100E+03  1.100E+03  1.100E+03  1.100E+03  1.100E+03  1.100E+03  1.100E+03  1.100E+03  1.100E+03
  20   1.100E+03  1.100E+03  1.100E+03  1.100E+03  1.100E+03  1.100E+03  1.100E+03  1.100E+03  1.100E+03
  21   1.000E+03  1.000E+03  1.000E+03  1.000E+03  1.000E+03  1.000E+03  1.000E+03  1.000E+03  1.000E+03
 END PROCESSING GRIDDATA

 STO -- STORAGE PACKAGE, VERSION 1, 5/19/2014 INPUT READ FROM UNIT 1005


 # File generated by Flopy version 3.5.0 on 02/25/2024 at 12:29:34.
 PROCESSING STORAGE OPTIONS
 END OF STORAGE OPTIONS
 PROCESSING GRIDDATA

                 ICONVERT = 1 FOR LAYER 1

         SPECIFIC STORAGE =  0.1000000     FOR LAYER 1

           SPECIFIC YIELD =  0.1000000     FOR LAYER 1
 END PROCESSING GRIDDATA
    BINARY GRID INFORMATION WILL BE WRITTEN TO:
      UNIT NUMBER: 1014
      FILE NAME: mumodel.dis.grb

 OPENED mumodel.dis.grb
 FILE TYPE:DATA(BINARY)   UNIT 1014   STATUS:REPLACE             
 FORMAT:UNFORMATTED            ACCESS:STREAM              
 ACTION:READWRITE           

      THE LAST TIME STEP WILL BE PRINTED
      THE LAST TIME STEP WILL BE PRINTED
 # File generated by Flopy version 3.5.0 on 02/25/2024 at 12:29:34.

 PROCESSING OC OPTIONS

    BUDGET INFORMATION WILL BE WRITTEN TO:
      UNIT NUMBER: 1015
      FILE NAME: mumodel_7-2b.cbb

 OPENED mumodel_7-2b.cbb
 FILE TYPE:DATA(BINARY)   UNIT 1015   STATUS:REPLACE             
 FORMAT:UNFORMATTED            ACCESS:STREAM              
 ACTION:READWRITE           

    HEAD INFORMATION WILL BE WRITTEN TO:
      UNIT NUMBER: 1016
      FILE NAME: mumodel_7-2b.hds

 OPENED mumodel_7-2b.hds
 FILE TYPE:DATA(BINARY)   UNIT 1016   STATUS:REPLACE             
 FORMAT:UNFORMATTED            ACCESS:STREAM              
 ACTION:READWRITE           

 END OF OC OPTIONS

start timestep kper="1" kstp="1" mode="normal"


 BEGIN READING OUTPUT CONTROL FOR STRESS PERIOD 1
      ALL TIME STEPS WILL BE SAVED
      ALL TIME STEPS WILL BE SAVED
      ALL TIME STEPS WILL BE PRINTED

 END READING OUTPUT CONTROL FOR STRESS PERIOD 1


 PROCESSING STORAGE PERIOD DATA
 END PROCESSING STORAGE PERIOD DATA


 STRESS PERIOD 1 IS STEADY-STATE

 --------------------------------------------------------------------
  WEL NO.    LAYER    ROW     COL     STRESS RATE         IFACE      
 --------------------------------------------------------------------
     1         1       5       5     0.00000000       0.00000000     
     2         1      11       5     0.00000000       0.00000000     
     3         1       5       5     0.00000000       0.00000000     
 --------------------------------------------------------------------


 ---------------------------------------------------
  CHD NO.    LAYER    ROW     COL         HEAD      
 ---------------------------------------------------
     1         1       1       1     1000.00000     
     2         1       1       2     1000.00000     
     3         1       1       3     1000.00000     
     4         1       1       4     1000.00000     
     5         1       1       5     1000.00000     
     6         1       1       6     1000.00000     
     7         1       1       7     1000.00000     
     8         1       1       8     1000.00000     
     9         1       1       9     1000.00000     
     10        1      21       1     1000.00000     
     11        1      21       2     1000.00000     
     12        1      21       3     1000.00000     
     13        1      21       4     1000.00000     
     14        1      21       5     1000.00000     
     15        1      21       6     1000.00000     
     16        1      21       7     1000.00000     
     17        1      21       8     1000.00000     
     18        1      21       9     1000.00000     
 ---------------------------------------------------


 UBDSV1 SAVING     FLOW-JA-FACE ON UNIT   1015 AT TIME STEP      1, STRESS PERIOD      1
 UBDSV06 SAVING              WEL IN MODEL MUMODEL          PACKAGE MUMODEL         CONNECTED TO MODEL MUMODEL          PACKAGE WEL-1            ON UNIT   1015 AT TIME STEP      1, STRESS PERIOD      1
 UBDSV06 SAVING             RCHA IN MODEL MUMODEL          PACKAGE MUMODEL         CONNECTED TO MODEL MUMODEL          PACKAGE RCH-1            ON UNIT   1015 AT TIME STEP      1, STRESS PERIOD      1

 WEL PACKAGE (WEL-1) FLOW RATES   PERIOD      1   STEP        1
 -----------------------------------------------
   NUMBER   CELLID                    RATE      
 -----------------------------------------------
     1      (1,5,5)               0.0000000     
     2      (1,11,5)              0.0000000     
     3      (1,5,5)               0.0000000     
 -----------------------------------------------




 CHD PACKAGE (CHD-FROM-IBOUND) FLOW RATES   PERIOD      1   STEP        1
 -----------------------------------------------
   NUMBER   CELLID                    RATE      
 -----------------------------------------------
     1      (1,1,1)              -5243.9994     
     2      (1,1,2)              -5243.9908     
     3      (1,1,3)              -5243.9932     
     4      (1,1,4)              -5243.9970     
     5      (1,1,5)              -5244.0001     
     6      (1,1,6)              -5244.0027     
     7      (1,1,7)              -5244.0058     
     8      (1,1,8)              -5244.0101     
     9      (1,1,9)              -5244.0147     
     10     (1,21,1)             -5244.0169     
     11     (1,21,2)             -5244.0085     
     12     (1,21,3)             -5244.0022     
     13     (1,21,4)             -5243.9987     
     14     (1,21,5)             -5243.9956     
     15     (1,21,6)             -5243.9913     
     16     (1,21,7)             -5243.9863     
     17     (1,21,8)             -5243.9850     
     18     (1,21,9)             -5244.0024     
 -----------------------------------------------




 HEAD WILL BE SAVED ON UNIT 1016 AT END OF TIME STEP    1, STRESS PERIOD    1


  VOLUME BUDGET FOR ENTIRE MODEL AT END OF TIME STEP    1, STRESS PERIOD   1
  ---------------------------------------------------------------------------------------------------

     CUMULATIVE VOLUME      L**3       RATES FOR THIS TIME STEP      L**3/T          PACKAGE NAME    
     ------------------                 ------------------------                     ----------------

           IN:                                      IN:
           ---                                      ---
              STO-SS =           0.0000                STO-SS =           0.0000     STORAGE                          
              STO-SY =           0.0000                STO-SY =           0.0000     STORAGE                          
                 WEL =           0.0000                   WEL =           0.0000     WEL-1                            
                RCHA =       94392.0000                  RCHA =       94392.0000     RCH-1                            
                 CHD =           0.0000                   CHD =           0.0000     CHD-FROM-IBOUND                  

            TOTAL IN =       94392.0000              TOTAL IN =       94392.0000

          OUT:                                     OUT:
          ----                                     ----
              STO-SS =           0.0000                STO-SS =           0.0000     STORAGE                          
              STO-SY =           0.0000                STO-SY =           0.0000     STORAGE                          
                 WEL =           0.0000                   WEL =           0.0000     WEL-1                            
                RCHA =           0.0000                  RCHA =           0.0000     RCH-1                            
                 CHD =       94392.0010                   CHD =       94392.0010     CHD-FROM-IBOUND                  

           TOTAL OUT =       94392.0010             TOTAL OUT =       94392.0010

            IN - OUT =      -9.8867E-04              IN - OUT =      -9.8867E-04

 PERCENT DISCREPANCY =          -0.00     PERCENT DISCREPANCY =          -0.00




         TIME SUMMARY AT END OF TIME STEP    1 IN STRESS PERIOD    1
                    SECONDS     MINUTES      HOURS       DAYS        YEARS
                    -----------------------------------------------------------
   TIME STEP LENGTH  86400.      1440.0      24.000      1.0000     2.73785E-03
 STRESS PERIOD TIME  86400.      1440.0      24.000      1.0000     2.73785E-03
         TOTAL TIME  86400.      1440.0      24.000      1.0000     2.73785E-03


end timestep


start timestep kper="2" kstp="1" mode="normal"


 END OF FILE DETECTED IN OUTPUT CONTROL.
 CURRENT OUTPUT CONTROL SETTINGS WILL BE 
 REPEATED UNTIL THE END OF THE SIMULATION.

 OUTPUT CONTROL FOR STRESS PERIOD 2 IS REPEATED USING SETTINGS FROM A PREVIOUS STRESS PERIOD.


 PROCESSING STORAGE PERIOD DATA
 END PROCESSING STORAGE PERIOD DATA


 STRESS PERIOD 2 IS TRANSIENT


 REUSING WELS FROM LAST STRESS PERIOD

 REUSING CHDS FROM LAST STRESS PERIOD
 UBDSV1 SAVING     FLOW-JA-FACE ON UNIT   1015 AT TIME STEP      1, STRESS PERIOD      2
 UBDSV06 SAVING              WEL IN MODEL MUMODEL          PACKAGE MUMODEL         CONNECTED TO MODEL MUMODEL          PACKAGE WEL-1            ON UNIT   1015 AT TIME STEP      1, STRESS PERIOD      2
 UBDSV06 SAVING             RCHA IN MODEL MUMODEL          PACKAGE MUMODEL         CONNECTED TO MODEL MUMODEL          PACKAGE RCH-1            ON UNIT   1015 AT TIME STEP      1, STRESS PERIOD      2

 WEL PACKAGE (WEL-1) FLOW RATES   PERIOD      2   STEP        1
 -----------------------------------------------
   NUMBER   CELLID                    RATE      
 -----------------------------------------------
     1      (1,5,5)               0.0000000     
     2      (1,11,5)              0.0000000     
     3      (1,5,5)               0.0000000     
 -----------------------------------------------




 CHD PACKAGE (CHD-FROM-IBOUND) FLOW RATES   PERIOD      2   STEP        1
 -----------------------------------------------
   NUMBER   CELLID                    RATE      
 -----------------------------------------------
     1      (1,1,1)              -5243.8331     
     2      (1,1,2)              -5243.8243     
     3      (1,1,3)              -5243.8264     
     4      (1,1,4)              -5243.8299     
     5      (1,1,5)              -5243.8329     
     6      (1,1,6)              -5243.8353     
     7      (1,1,7)              -5243.8383     
     8      (1,1,8)              -5243.8424     
     9      (1,1,9)              -5243.8469     
     10     (1,21,1)             -5243.8490     
     11     (1,21,2)             -5243.8409     
     12     (1,21,3)             -5243.8349     
     13     (1,21,4)             -5243.8314     
     14     (1,21,5)             -5243.8282     
     15     (1,21,6)             -5243.8238     
     16     (1,21,7)             -5243.8189     
     17     (1,21,8)             -5243.8179     
     18     (1,21,9)             -5243.8353     
 -----------------------------------------------




 HEAD WILL BE SAVED ON UNIT 1016 AT END OF TIME STEP    1, STRESS PERIOD    2


  VOLUME BUDGET FOR ENTIRE MODEL AT END OF TIME STEP    1, STRESS PERIOD   2
  ---------------------------------------------------------------------------------------------------

     CUMULATIVE VOLUME      L**3       RATES FOR THIS TIME STEP      L**3/T          PACKAGE NAME    
     ------------------                 ------------------------                     ----------------

           IN:                                      IN:
           ---                                      ---
              STO-SS =       16214.8001                STO-SS =        8629.9794     STORAGE                          
              STO-SY =         486.6243                STO-SY =         258.9953     STORAGE                          
                 WEL =           0.0000                   WEL =           0.0000     WEL-1                            
                RCHA =      255037.2741                  RCHA =       85500.0000     RCH-1                            
                 CHD =           0.0000                   CHD =           0.0000     CHD-FROM-IBOUND                  

            TOTAL IN =      271738.6985              TOTAL IN =       94388.9748

          OUT:                                     OUT:
          ----                                     ----
              STO-SS =           0.0000                STO-SS =           0.0000     STORAGE                          
              STO-SY =           0.0000                STO-SY =           0.0000     STORAGE                          
                 WEL =           0.0000                   WEL =           0.0000     WEL-1                            
                RCHA =           0.0000                  RCHA =           0.0000     RCH-1                            
                 CHD =      271738.7278                   CHD =       94388.9898     CHD-FROM-IBOUND                  

           TOTAL OUT =      271738.7278             TOTAL OUT =       94388.9898

            IN - OUT =      -2.9290E-02              IN - OUT =      -1.5063E-02

 PERCENT DISCREPANCY =          -0.00     PERCENT DISCREPANCY =          -0.00




         TIME SUMMARY AT END OF TIME STEP    1 IN STRESS PERIOD    2
                    SECONDS     MINUTES      HOURS       DAYS        YEARS
                    -----------------------------------------------------------
   TIME STEP LENGTH 1.62336E+05  2705.6      45.093      1.8789     5.14413E-03
 STRESS PERIOD TIME 1.62336E+05  2705.6      45.093      1.8789     5.14413E-03
         TOTAL TIME 2.48736E+05  4145.6      69.093      2.8789     7.88198E-03


end timestep


start timestep kper="2" kstp="2" mode="normal"

 UBDSV1 SAVING     FLOW-JA-FACE ON UNIT   1015 AT TIME STEP      2, STRESS PERIOD      2
 UBDSV06 SAVING              WEL IN MODEL MUMODEL          PACKAGE MUMODEL         CONNECTED TO MODEL MUMODEL          PACKAGE WEL-1            ON UNIT   1015 AT TIME STEP      2, STRESS PERIOD      2
 UBDSV06 SAVING             RCHA IN MODEL MUMODEL          PACKAGE MUMODEL         CONNECTED TO MODEL MUMODEL          PACKAGE RCH-1            ON UNIT   1015 AT TIME STEP      2, STRESS PERIOD      2

 WEL PACKAGE (WEL-1) FLOW RATES   PERIOD      2   STEP        2
 -----------------------------------------------
   NUMBER   CELLID                    RATE      
 -----------------------------------------------
     1      (1,5,5)               0.0000000     
     2      (1,11,5)              0.0000000     
     3      (1,5,5)               0.0000000     
 -----------------------------------------------




 CHD PACKAGE (CHD-FROM-IBOUND) FLOW RATES   PERIOD      2   STEP        2
 -----------------------------------------------
   NUMBER   CELLID                    RATE      
 -----------------------------------------------
     1      (1,1,1)              -5243.6189     
     2      (1,1,2)              -5243.6101     
     3      (1,1,3)              -5243.6121     
     4      (1,1,4)              -5243.6157     
     5      (1,1,5)              -5243.6186     
     6      (1,1,6)              -5243.6211     
     7      (1,1,7)              -5243.6240     
     8      (1,1,8)              -5243.6282     
     9      (1,1,9)              -5243.6326     
     10     (1,21,1)             -5243.6346     
     11     (1,21,2)             -5243.6266     
     12     (1,21,3)             -5243.6207     
     13     (1,21,4)             -5243.6172     
     14     (1,21,5)             -5243.6140     
     15     (1,21,6)             -5243.6096     
     16     (1,21,7)             -5243.6047     
     17     (1,21,8)             -5243.6038     
     18     (1,21,9)             -5243.6211     
 -----------------------------------------------




 HEAD WILL BE SAVED ON UNIT 1016 AT END OF TIME STEP    2, STRESS PERIOD    2


  VOLUME BUDGET FOR ENTIRE MODEL AT END OF TIME STEP    2, STRESS PERIOD   2
  ---------------------------------------------------------------------------------------------------

     CUMULATIVE VOLUME      L**3       RATES FOR THIS TIME STEP      L**3/T          PACKAGE NAME    
     ------------------                 ------------------------                     ----------------

           IN:                                      IN:
           ---                                      ---
              STO-SS =       35664.1956                STO-SS =        8626.2695     STORAGE                          
              STO-SY =        1070.2367                STO-SY =         258.8460     STORAGE                          
                 WEL =           0.0000                   WEL =           0.0000     WEL-1                            
                RCHA =      447811.6030                  RCHA =       85500.0000     RCH-1                            
                 CHD =           0.0000                   CHD =           0.0000     CHD-FROM-IBOUND                  

            TOTAL IN =      484546.0353              TOTAL IN =       94385.1155

          OUT:                                     OUT:
          ----                                     ----
              STO-SS =           0.0000                STO-SS =           0.0000     STORAGE                          
              STO-SY =           0.0000                STO-SY =           0.0000     STORAGE                          
                 WEL =           0.0000                   WEL =           0.0000     WEL-1                            
                RCHA =           0.0000                  RCHA =           0.0000     RCH-1                            
                 CHD =      484546.1053                   CHD =       94385.1335     CHD-FROM-IBOUND                  

           TOTAL OUT =      484546.1053             TOTAL OUT =       94385.1335

            IN - OUT =      -6.9988E-02              IN - OUT =      -1.8050E-02

 PERCENT DISCREPANCY =          -0.00     PERCENT DISCREPANCY =          -0.00




         TIME SUMMARY AT END OF TIME STEP    2 IN STRESS PERIOD    2
                    SECONDS     MINUTES      HOURS       DAYS        YEARS
                    -----------------------------------------------------------
   TIME STEP LENGTH 1.94804E+05  3246.7      54.112      2.2547     6.17295E-03
 STRESS PERIOD TIME 3.57140E+05  5952.3      99.206      4.1336     1.13171E-02
         TOTAL TIME 4.43540E+05  7392.3      123.21      5.1336     1.40549E-02


end timestep


start timestep kper="2" kstp="3" mode="normal"

 UBDSV1 SAVING     FLOW-JA-FACE ON UNIT   1015 AT TIME STEP      3, STRESS PERIOD      2
 UBDSV06 SAVING              WEL IN MODEL MUMODEL          PACKAGE MUMODEL         CONNECTED TO MODEL MUMODEL          PACKAGE WEL-1            ON UNIT   1015 AT TIME STEP      3, STRESS PERIOD      2
 UBDSV06 SAVING             RCHA IN MODEL MUMODEL          PACKAGE MUMODEL         CONNECTED TO MODEL MUMODEL          PACKAGE RCH-1            ON UNIT   1015 AT TIME STEP      3, STRESS PERIOD      2

 WEL PACKAGE (WEL-1) FLOW RATES   PERIOD      2   STEP        3
 -----------------------------------------------
   NUMBER   CELLID                    RATE      
 -----------------------------------------------
     1      (1,5,5)               0.0000000     
     2      (1,11,5)              0.0000000     
     3      (1,5,5)               0.0000000     
 -----------------------------------------------




 CHD PACKAGE (CHD-FROM-IBOUND) FLOW RATES   PERIOD      2   STEP        3
 -----------------------------------------------
   NUMBER   CELLID                    RATE      
 -----------------------------------------------
     1      (1,1,1)              -5243.3630     
     2      (1,1,2)              -5243.3544     
     3      (1,1,3)              -5243.3564     
     4      (1,1,4)              -5243.3599     
     5      (1,1,5)              -5243.3628     
     6      (1,1,6)              -5243.3652     
     7      (1,1,7)              -5243.3682     
     8      (1,1,8)              -5243.3723     
     9      (1,1,9)              -5243.3768     
     10     (1,21,1)             -5243.3787     
     11     (1,21,2)             -5243.3707     
     12     (1,21,3)             -5243.3648     
     13     (1,21,4)             -5243.3613     
     14     (1,21,5)             -5243.3581     
     15     (1,21,6)             -5243.3538     
     16     (1,21,7)             -5243.3490     
     17     (1,21,8)             -5243.3482     
     18     (1,21,9)             -5243.3652     
 -----------------------------------------------




 HEAD WILL BE SAVED ON UNIT 1016 AT END OF TIME STEP    3, STRESS PERIOD    2


  VOLUME BUDGET FOR ENTIRE MODEL AT END OF TIME STEP    3, STRESS PERIOD   2
  ---------------------------------------------------------------------------------------------------

     CUMULATIVE VOLUME      L**3       RATES FOR THIS TIME STEP      L**3/T          PACKAGE NAME    
     ------------------                 ------------------------                     ----------------

           IN:                                      IN:
           ---                                      ---
              STO-SS =       58991.4839                STO-SS =        8621.8393     STORAGE                          
              STO-SY =        1770.0894                STO-SY =         258.6678     STORAGE                          
                 WEL =           0.0000                   WEL =           0.0000     WEL-1                            
                RCHA =      679140.7977                  RCHA =       85500.0000     RCH-1                            
                 CHD =           0.0000                   CHD =           0.0000     CHD-FROM-IBOUND                  

            TOTAL IN =      739902.3710              TOTAL IN =       94380.5071

          OUT:                                     OUT:
          ----                                     ----
              STO-SS =           0.0000                STO-SS =           0.0000     STORAGE                          
              STO-SY =           0.0000                STO-SY =           0.0000     STORAGE                          
                 WEL =           0.0000                   WEL =           0.0000     WEL-1                            
                RCHA =           0.0000                  RCHA =           0.0000     RCH-1                            
                 CHD =      739902.4995                   CHD =       94380.5287     CHD-FROM-IBOUND                  

           TOTAL OUT =      739902.4995             TOTAL OUT =       94380.5287

            IN - OUT =          -0.1285              IN - OUT =      -2.1622E-02

 PERCENT DISCREPANCY =          -0.00     PERCENT DISCREPANCY =          -0.00




         TIME SUMMARY AT END OF TIME STEP    3 IN STRESS PERIOD    2
                    SECONDS     MINUTES      HOURS       DAYS        YEARS
                    -----------------------------------------------------------
   TIME STEP LENGTH 2.33764E+05  3896.1      64.935      2.7056     7.40754E-03
 STRESS PERIOD TIME 5.90904E+05  9848.4      164.14      6.8392     1.87246E-02
         TOTAL TIME 6.77304E+05  11288.      188.14      7.8392     2.14625E-02


end timestep


start timestep kper="2" kstp="4" mode="normal"

 UBDSV1 SAVING     FLOW-JA-FACE ON UNIT   1015 AT TIME STEP      4, STRESS PERIOD      2
 UBDSV06 SAVING              WEL IN MODEL MUMODEL          PACKAGE MUMODEL         CONNECTED TO MODEL MUMODEL          PACKAGE WEL-1            ON UNIT   1015 AT TIME STEP      4, STRESS PERIOD      2
 UBDSV06 SAVING             RCHA IN MODEL MUMODEL          PACKAGE MUMODEL         CONNECTED TO MODEL MUMODEL          PACKAGE RCH-1            ON UNIT   1015 AT TIME STEP      4, STRESS PERIOD      2

 WEL PACKAGE (WEL-1) FLOW RATES   PERIOD      2   STEP        4
 -----------------------------------------------
   NUMBER   CELLID                    RATE      
 -----------------------------------------------
     1      (1,5,5)               0.0000000     
     2      (1,11,5)              0.0000000     
     3      (1,5,5)               0.0000000     
 -----------------------------------------------




 CHD PACKAGE (CHD-FROM-IBOUND) FLOW RATES   PERIOD      2   STEP        4
 -----------------------------------------------
   NUMBER   CELLID                    RATE      
 -----------------------------------------------
     1      (1,1,1)              -5243.0578     
     2      (1,1,2)              -5243.0493     
     3      (1,1,3)              -5243.0512     
     4      (1,1,4)              -5243.0547     
     5      (1,1,5)              -5243.0576     
     6      (1,1,6)              -5243.0600     
     7      (1,1,7)              -5243.0629     
     8      (1,1,8)              -5243.0671     
     9      (1,1,9)              -5243.0715     
     10     (1,21,1)             -5243.0734     
     11     (1,21,2)             -5243.0654     
     12     (1,21,3)             -5243.0596     
     13     (1,21,4)             -5243.0561     
     14     (1,21,5)             -5243.0529     
     15     (1,21,6)             -5243.0486     
     16     (1,21,7)             -5243.0439     
     17     (1,21,8)             -5243.0433     
     18     (1,21,9)             -5243.0600     
 -----------------------------------------------




 HEAD WILL BE SAVED ON UNIT 1016 AT END OF TIME STEP    4, STRESS PERIOD    2


  VOLUME BUDGET FOR ENTIRE MODEL AT END OF TIME STEP    4, STRESS PERIOD   2
  ---------------------------------------------------------------------------------------------------

     CUMULATIVE VOLUME      L**3       RATES FOR THIS TIME STEP      L**3/T          PACKAGE NAME    
     ------------------                 ------------------------                     ----------------

           IN:                                      IN:
           ---                                      ---
              STO-SS =       86967.0702                STO-SS =        8616.5541     STORAGE                          
              STO-SY =        2609.2230                STO-SY =         258.4553     STORAGE                          
                 WEL =           0.0000                   WEL =           0.0000     WEL-1                            
                RCHA =      956735.8313                  RCHA =       85500.0000     RCH-1                            
                 CHD =           0.0000                   CHD =           0.0000     CHD-FROM-IBOUND                  

            TOTAL IN =     1046312.1245              TOTAL IN =       94375.0095

          OUT:                                     OUT:
          ----                                     ----
              STO-SS =           0.0000                STO-SS =           0.0000     STORAGE                          
              STO-SY =           0.0000                STO-SY =           0.0000     STORAGE                          
                 WEL =           0.0000                   WEL =           0.0000     WEL-1                            
                RCHA =           0.0000                  RCHA =           0.0000     RCH-1                            
                 CHD =     1046312.3370                   CHD =       94375.0353     CHD-FROM-IBOUND                  

           TOTAL OUT =     1046312.3370             TOTAL OUT =       94375.0353

            IN - OUT =          -0.2125              IN - OUT =      -2.5887E-02

 PERCENT DISCREPANCY =          -0.00     PERCENT DISCREPANCY =          -0.00




         TIME SUMMARY AT END OF TIME STEP    4 IN STRESS PERIOD    2
                    SECONDS     MINUTES      HOURS       DAYS        YEARS
                    -----------------------------------------------------------
   TIME STEP LENGTH 2.80517E+05  4675.3      77.921      3.2467     8.88905E-03
 STRESS PERIOD TIME 8.71421E+05  14524.      242.06      10.086     2.76137E-02
         TOTAL TIME 9.57821E+05  15964.      266.06      11.086     3.03515E-02


end timestep


start timestep kper="2" kstp="5" mode="normal"

 UBDSV1 SAVING     FLOW-JA-FACE ON UNIT   1015 AT TIME STEP      5, STRESS PERIOD      2
 UBDSV06 SAVING              WEL IN MODEL MUMODEL          PACKAGE MUMODEL         CONNECTED TO MODEL MUMODEL          PACKAGE WEL-1            ON UNIT   1015 AT TIME STEP      5, STRESS PERIOD      2
 UBDSV06 SAVING             RCHA IN MODEL MUMODEL          PACKAGE MUMODEL         CONNECTED TO MODEL MUMODEL          PACKAGE RCH-1            ON UNIT   1015 AT TIME STEP      5, STRESS PERIOD      2

 WEL PACKAGE (WEL-1) FLOW RATES   PERIOD      2   STEP        5
 -----------------------------------------------
   NUMBER   CELLID                    RATE      
 -----------------------------------------------
     1      (1,5,5)               0.0000000     
     2      (1,11,5)              0.0000000     
     3      (1,5,5)               0.0000000     
 -----------------------------------------------




 CHD PACKAGE (CHD-FROM-IBOUND) FLOW RATES   PERIOD      2   STEP        5
 -----------------------------------------------
   NUMBER   CELLID                    RATE      
 -----------------------------------------------
     1      (1,1,1)              -5242.6942     
     2      (1,1,2)              -5242.6857     
     3      (1,1,3)              -5242.6876     
     4      (1,1,4)              -5242.6910     
     5      (1,1,5)              -5242.6939     
     6      (1,1,6)              -5242.6963     
     7      (1,1,7)              -5242.6992     
     8      (1,1,8)              -5242.7033     
     9      (1,1,9)              -5242.7078     
     10     (1,21,1)             -5242.7095     
     11     (1,21,2)             -5242.7016     
     12     (1,21,3)             -5242.6958     
     13     (1,21,4)             -5242.6924     
     14     (1,21,5)             -5242.6893     
     15     (1,21,6)             -5242.6850     
     16     (1,21,7)             -5242.6803     
     17     (1,21,8)             -5242.6799     
     18     (1,21,9)             -5242.6963     
 -----------------------------------------------




 HEAD WILL BE SAVED ON UNIT 1016 AT END OF TIME STEP    5, STRESS PERIOD    2


  VOLUME BUDGET FOR ENTIRE MODEL AT END OF TIME STEP    5, STRESS PERIOD   2
  ---------------------------------------------------------------------------------------------------

     CUMULATIVE VOLUME      L**3       RATES FOR THIS TIME STEP      L**3/T          PACKAGE NAME    
     ------------------                 ------------------------                     ----------------

           IN:                                      IN:
           ---                                      ---
              STO-SS =      120513.2350                STO-SS =        8610.2558     STORAGE                          
              STO-SY =        3615.1979                STO-SY =         258.2024     STORAGE                          
                 WEL =           0.0000                   WEL =           0.0000     WEL-1                            
                RCHA =     1289849.8717                  RCHA =       85500.0000     RCH-1                            
                 CHD =           0.0000                   CHD =           0.0000     CHD-FROM-IBOUND                  

            TOTAL IN =     1413978.3046              TOTAL IN =       94368.4582

          OUT:                                     OUT:
          ----                                     ----
              STO-SS =           0.0000                STO-SS =           0.0000     STORAGE                          
              STO-SY =           0.0000                STO-SY =           0.0000     STORAGE                          
                 WEL =           0.0000                   WEL =           0.0000     WEL-1                            
                RCHA =           0.0000                  RCHA =           0.0000     RCH-1                            
                 CHD =     1413978.6379                   CHD =       94368.4892     CHD-FROM-IBOUND                  

           TOTAL OUT =     1413978.6379             TOTAL OUT =       94368.4892

            IN - OUT =          -0.3333              IN - OUT =      -3.0987E-02

 PERCENT DISCREPANCY =          -0.00     PERCENT DISCREPANCY =          -0.00




         TIME SUMMARY AT END OF TIME STEP    5 IN STRESS PERIOD    2
                    SECONDS     MINUTES      HOURS       DAYS        YEARS
                    -----------------------------------------------------------
   TIME STEP LENGTH 3.36621E+05  5610.3      93.506      3.8961     1.06669E-02
 STRESS PERIOD TIME 1.20804E+06  20134.      335.57      13.982     3.82805E-02
         TOTAL TIME 1.29444E+06  21574.      359.57      14.982     4.10184E-02


end timestep


start timestep kper="2" kstp="6" mode="normal"

 UBDSV1 SAVING     FLOW-JA-FACE ON UNIT   1015 AT TIME STEP      6, STRESS PERIOD      2
 UBDSV06 SAVING              WEL IN MODEL MUMODEL          PACKAGE MUMODEL         CONNECTED TO MODEL MUMODEL          PACKAGE WEL-1            ON UNIT   1015 AT TIME STEP      6, STRESS PERIOD      2
 UBDSV06 SAVING             RCHA IN MODEL MUMODEL          PACKAGE MUMODEL         CONNECTED TO MODEL MUMODEL          PACKAGE RCH-1            ON UNIT   1015 AT TIME STEP      6, STRESS PERIOD      2

 WEL PACKAGE (WEL-1) FLOW RATES   PERIOD      2   STEP        6
 -----------------------------------------------
   NUMBER   CELLID                    RATE      
 -----------------------------------------------
     1      (1,5,5)               0.0000000     
     2      (1,11,5)              0.0000000     
     3      (1,5,5)               0.0000000     
 -----------------------------------------------




 CHD PACKAGE (CHD-FROM-IBOUND) FLOW RATES   PERIOD      2   STEP        6
 -----------------------------------------------
   NUMBER   CELLID                    RATE      
 -----------------------------------------------
     1      (1,1,1)              -5242.2614     
     2      (1,1,2)              -5242.2531     
     3      (1,1,3)              -5242.2548     
     4      (1,1,4)              -5242.2582     
     5      (1,1,5)              -5242.2611     
     6      (1,1,6)              -5242.2635     
     7      (1,1,7)              -5242.2664     
     8      (1,1,8)              -5242.2705     
     9      (1,1,9)              -5242.2749     
     10     (1,21,1)             -5242.2765     
     11     (1,21,2)             -5242.2687     
     12     (1,21,3)             -5242.2630     
     13     (1,21,4)             -5242.2596     
     14     (1,21,5)             -5242.2565     
     15     (1,21,6)             -5242.2523     
     16     (1,21,7)             -5242.2477     
     17     (1,21,8)             -5242.2474     
     18     (1,21,9)             -5242.2635     
 -----------------------------------------------




 HEAD WILL BE SAVED ON UNIT 1016 AT END OF TIME STEP    6, STRESS PERIOD    2


  VOLUME BUDGET FOR ENTIRE MODEL AT END OF TIME STEP    6, STRESS PERIOD   2
  ---------------------------------------------------------------------------------------------------

     CUMULATIVE VOLUME      L**3       RATES FOR THIS TIME STEP      L**3/T          PACKAGE NAME    
     ------------------                 ------------------------                     ----------------

           IN:                                      IN:
           ---                                      ---
              STO-SS =      160733.5881                STO-SS =        8602.7601     STORAGE                          
              STO-SY =        4820.9622                STO-SY =         257.9018     STORAGE                          
                 WEL =           0.0000                   WEL =           0.0000     WEL-1                            
                RCHA =     1689586.7201                  RCHA =       85500.0000     RCH-1                            
                 CHD =           0.0000                   CHD =           0.0000     CHD-FROM-IBOUND                  

            TOTAL IN =     1855141.2704              TOTAL IN =       94360.6618

          OUT:                                     OUT:
          ----                                     ----
              STO-SS =           0.0000                STO-SS =           0.0000     STORAGE                          
              STO-SY =           0.0000                STO-SY =           0.0000     STORAGE                          
                 WEL =           0.0000                   WEL =           0.0000     WEL-1                            
                RCHA =           0.0000                  RCHA =           0.0000     RCH-1                            
                 CHD =     1855141.7770                   CHD =       94360.6989     CHD-FROM-IBOUND                  

           TOTAL OUT =     1855141.7770             TOTAL OUT =       94360.6989

            IN - OUT =          -0.5066              IN - OUT =      -3.7074E-02

 PERCENT DISCREPANCY =          -0.00     PERCENT DISCREPANCY =          -0.00




         TIME SUMMARY AT END OF TIME STEP    6 IN STRESS PERIOD    2
                    SECONDS     MINUTES      HOURS       DAYS        YEARS
                    -----------------------------------------------------------
   TIME STEP LENGTH 4.03945E+05  6732.4      112.21      4.6753     1.28002E-02
 STRESS PERIOD TIME 1.61199E+06  26866.      447.77      18.657     5.10808E-02
         TOTAL TIME 1.69839E+06  28306.      471.77      19.657     5.38186E-02


end timestep


start timestep kper="2" kstp="7" mode="normal"

 UBDSV1 SAVING     FLOW-JA-FACE ON UNIT   1015 AT TIME STEP      7, STRESS PERIOD      2
 UBDSV06 SAVING              WEL IN MODEL MUMODEL          PACKAGE MUMODEL         CONNECTED TO MODEL MUMODEL          PACKAGE WEL-1            ON UNIT   1015 AT TIME STEP      7, STRESS PERIOD      2
 UBDSV06 SAVING             RCHA IN MODEL MUMODEL          PACKAGE MUMODEL         CONNECTED TO MODEL MUMODEL          PACKAGE RCH-1            ON UNIT   1015 AT TIME STEP      7, STRESS PERIOD      2

 WEL PACKAGE (WEL-1) FLOW RATES   PERIOD      2   STEP        7
 -----------------------------------------------
   NUMBER   CELLID                    RATE      
 -----------------------------------------------
     1      (1,5,5)               0.0000000     
     2      (1,11,5)              0.0000000     
     3      (1,5,5)               0.0000000     
 -----------------------------------------------




 CHD PACKAGE (CHD-FROM-IBOUND) FLOW RATES   PERIOD      2   STEP        7
 -----------------------------------------------
   NUMBER   CELLID                    RATE      
 -----------------------------------------------
     1      (1,1,1)              -5241.7471     
     2      (1,1,2)              -5241.7390     
     3      (1,1,3)              -5241.7406     
     4      (1,1,4)              -5241.7440     
     5      (1,1,5)              -5241.7468     
     6      (1,1,6)              -5241.7492     
     7      (1,1,7)              -5241.7521     
     8      (1,1,8)              -5241.7561     
     9      (1,1,9)              -5241.7605     
     10     (1,21,1)             -5241.7620     
     11     (1,21,2)             -5241.7543     
     12     (1,21,3)             -5241.7486     
     13     (1,21,4)             -5241.7453     
     14     (1,21,5)             -5241.7422     
     15     (1,21,6)             -5241.7381     
     16     (1,21,7)             -5241.7336     
     17     (1,21,8)             -5241.7335     
     18     (1,21,9)             -5241.7493     
 -----------------------------------------------




 HEAD WILL BE SAVED ON UNIT 1016 AT END OF TIME STEP    7, STRESS PERIOD    2


  VOLUME BUDGET FOR ENTIRE MODEL AT END OF TIME STEP    7, STRESS PERIOD   2
  ---------------------------------------------------------------------------------------------------

     CUMULATIVE VOLUME      L**3       RATES FOR THIS TIME STEP      L**3/T          PACKAGE NAME    
     ------------------                 ------------------------                     ----------------

           IN:                                      IN:
           ---                                      ---
              STO-SS =      208948.0402                STO-SS =        8593.8530     STORAGE                          
              STO-SY =        6265.8777                STO-SY =         257.5450     STORAGE                          
                 WEL =           0.0000                   WEL =           0.0000     WEL-1                            
                RCHA =     2169270.9383                  RCHA =       85500.0000     RCH-1                            
                 CHD =           0.0000                   CHD =           0.0000     CHD-FROM-IBOUND                  

            TOTAL IN =     2384484.8562              TOTAL IN =       94351.3980

          OUT:                                     OUT:
          ----                                     ----
              STO-SS =           0.0000                STO-SS =           0.0000     STORAGE                          
              STO-SY =           0.0000                STO-SY =           0.0000     STORAGE                          
                 WEL =           0.0000                   WEL =           0.0000     WEL-1                            
                RCHA =           0.0000                  RCHA =           0.0000     RCH-1                            
                 CHD =     2384485.6115                   CHD =       94351.4423     CHD-FROM-IBOUND                  

           TOTAL OUT =     2384485.6115             TOTAL OUT =       94351.4423

            IN - OUT =          -0.7553              IN - OUT =      -4.4336E-02

 PERCENT DISCREPANCY =          -0.00     PERCENT DISCREPANCY =          -0.00




         TIME SUMMARY AT END OF TIME STEP    7 IN STRESS PERIOD    2
                    SECONDS     MINUTES      HOURS       DAYS        YEARS
                    -----------------------------------------------------------
   TIME STEP LENGTH 4.84734E+05  8078.9      134.65      5.6103     1.53603E-02
 STRESS PERIOD TIME 2.09672E+06  34945.      582.42      24.268     6.64410E-02
         TOTAL TIME 2.18312E+06  36385.      606.42      25.268     6.91789E-02


end timestep


start timestep kper="2" kstp="8" mode="normal"

 UBDSV1 SAVING     FLOW-JA-FACE ON UNIT   1015 AT TIME STEP      8, STRESS PERIOD      2
 UBDSV06 SAVING              WEL IN MODEL MUMODEL          PACKAGE MUMODEL         CONNECTED TO MODEL MUMODEL          PACKAGE WEL-1            ON UNIT   1015 AT TIME STEP      8, STRESS PERIOD      2
 UBDSV06 SAVING             RCHA IN MODEL MUMODEL          PACKAGE MUMODEL         CONNECTED TO MODEL MUMODEL          PACKAGE RCH-1            ON UNIT   1015 AT TIME STEP      8, STRESS PERIOD      2

 WEL PACKAGE (WEL-1) FLOW RATES   PERIOD      2   STEP        8
 -----------------------------------------------
   NUMBER   CELLID                    RATE      
 -----------------------------------------------
     1      (1,5,5)               0.0000000     
     2      (1,11,5)              0.0000000     
     3      (1,5,5)               0.0000000     
 -----------------------------------------------




 CHD PACKAGE (CHD-FROM-IBOUND) FLOW RATES   PERIOD      2   STEP        8
 -----------------------------------------------
   NUMBER   CELLID                    RATE      
 -----------------------------------------------
     1      (1,1,1)              -5241.1371     
     2      (1,1,2)              -5241.1293     
     3      (1,1,3)              -5241.1308     
     4      (1,1,4)              -5241.1340     
     5      (1,1,5)              -5241.1368     
     6      (1,1,6)              -5241.1392     
     7      (1,1,7)              -5241.1421     
     8      (1,1,8)              -5241.1461     
     9      (1,1,9)              -5241.1504     
     10     (1,21,1)             -5241.1518     
     11     (1,21,2)             -5241.1442     
     12     (1,21,3)             -5241.1386     
     13     (1,21,4)             -5241.1353     
     14     (1,21,5)             -5241.1323     
     15     (1,21,6)             -5241.1282     
     16     (1,21,7)             -5241.1239     
     17     (1,21,8)             -5241.1240     
     18     (1,21,9)             -5241.1393     
 -----------------------------------------------




 HEAD WILL BE SAVED ON UNIT 1016 AT END OF TIME STEP    8, STRESS PERIOD    2


  VOLUME BUDGET FOR ENTIRE MODEL AT END OF TIME STEP    8, STRESS PERIOD   2
  ---------------------------------------------------------------------------------------------------

     CUMULATIVE VOLUME      L**3       RATES FOR THIS TIME STEP      L**3/T          PACKAGE NAME    
     ------------------                 ------------------------                     ----------------

           IN:                                      IN:
           ---                                      ---
              STO-SS =      266734.2548                STO-SS =        8583.2880     STORAGE                          
              STO-SY =        7996.9318                STO-SY =         257.1225     STORAGE                          
                 WEL =           0.0000                   WEL =           0.0000     WEL-1                            
                RCHA =     2744892.0000                  RCHA =       85500.0000     RCH-1                            
                 CHD =           0.0000                   CHD =           0.0000     CHD-FROM-IBOUND                  

            TOTAL IN =     3019623.1866              TOTAL IN =       94340.4105

          OUT:                                     OUT:
          ----                                     ----
              STO-SS =           0.0000                STO-SS =           0.0000     STORAGE                          
              STO-SY =           0.0000                STO-SY =           0.0000     STORAGE                          
                 WEL =           0.0000                   WEL =           0.0000     WEL-1                            
                RCHA =           0.0000                  RCHA =           0.0000     RCH-1                            
                 CHD =     3019624.2987                   CHD =       94340.4635     CHD-FROM-IBOUND                  

           TOTAL OUT =     3019624.2987             TOTAL OUT =       94340.4635

            IN - OUT =          -1.1120              IN - OUT =      -5.2983E-02

 PERCENT DISCREPANCY =          -0.00     PERCENT DISCREPANCY =          -0.00




         TIME SUMMARY AT END OF TIME STEP    8 IN STRESS PERIOD    2
                    SECONDS     MINUTES      HOURS       DAYS        YEARS
                    -----------------------------------------------------------
   TIME STEP LENGTH 5.81680E+05  9694.7      161.58      6.7324     1.84323E-02
 STRESS PERIOD TIME 2.67840E+06  44640.      744.00      31.000     8.48734E-02
         TOTAL TIME 2.76480E+06  46080.      768.00      32.000     8.76112E-02


end timestep


start timestep kper="3" kstp="1" mode="normal"


 OUTPUT CONTROL FOR STRESS PERIOD 3 IS REPEATED USING SETTINGS FROM A PREVIOUS STRESS PERIOD.


 STRESS PERIOD 3 IS TRANSIENT


 REUSING WELS FROM LAST STRESS PERIOD

 REUSING CHDS FROM LAST STRESS PERIOD
 UBDSV1 SAVING     FLOW-JA-FACE ON UNIT   1015 AT TIME STEP      1, STRESS PERIOD      3
 UBDSV06 SAVING              WEL IN MODEL MUMODEL          PACKAGE MUMODEL         CONNECTED TO MODEL MUMODEL          PACKAGE WEL-1            ON UNIT   1015 AT TIME STEP      1, STRESS PERIOD      3
 UBDSV06 SAVING             RCHA IN MODEL MUMODEL          PACKAGE MUMODEL         CONNECTED TO MODEL MUMODEL          PACKAGE RCH-1            ON UNIT   1015 AT TIME STEP      1, STRESS PERIOD      3

 WEL PACKAGE (WEL-1) FLOW RATES   PERIOD      3   STEP        1
 -----------------------------------------------
   NUMBER   CELLID                    RATE      
 -----------------------------------------------
     1      (1,5,5)               0.0000000     
     2      (1,11,5)              0.0000000     
     3      (1,5,5)               0.0000000     
 -----------------------------------------------




 CHD PACKAGE (CHD-FROM-IBOUND) FLOW RATES   PERIOD      3   STEP        1
 -----------------------------------------------
   NUMBER   CELLID                    RATE      
 -----------------------------------------------
     1      (1,1,1)              -5244.0896     
     2      (1,1,2)              -5244.0818     
     3      (1,1,3)              -5244.0832     
     4      (1,1,4)              -5244.0865     
     5      (1,1,5)              -5244.0893     
     6      (1,1,6)              -5244.0916     
     7      (1,1,7)              -5244.0945     
     8      (1,1,8)              -5244.0985     
     9      (1,1,9)              -5244.1029     
     10     (1,21,1)             -5244.1042     
     11     (1,21,2)             -5244.0966     
     12     (1,21,3)             -5244.0910     
     13     (1,21,4)             -5244.0878     
     14     (1,21,5)             -5244.0847     
     15     (1,21,6)             -5244.0807     
     16     (1,21,7)             -5244.0764     
     17     (1,21,8)             -5244.0766     
     18     (1,21,9)             -5244.0918     
 -----------------------------------------------




 HEAD WILL BE SAVED ON UNIT 1016 AT END OF TIME STEP    1, STRESS PERIOD    3


  VOLUME BUDGET FOR ENTIRE MODEL AT END OF TIME STEP    1, STRESS PERIOD   3
  ---------------------------------------------------------------------------------------------------

     CUMULATIVE VOLUME      L**3       RATES FOR THIS TIME STEP      L**3/T          PACKAGE NAME    
     ------------------                 ------------------------                     ----------------

           IN:                                      IN:
           ---                                      ---
              STO-SS =      266734.2548                STO-SS =           0.0000     STORAGE                          
              STO-SY =        7996.9318                STO-SY =           0.0000     STORAGE                          
                 WEL =           0.0000                   WEL =           0.0000     WEL-1                            
                RCHA =     3180188.8717                  RCHA =      256500.0000     RCH-1                            
                 CHD =           0.0000                   CHD =           0.0000     CHD-FROM-IBOUND                  

            TOTAL IN =     3454920.0584              TOTAL IN =      256500.0000

          OUT:                                     OUT:
          ----                                     ----
              STO-SS =      267088.0743                STO-SS =      157382.4567     STORAGE                          
              STO-SY =        8016.8204                STO-SY =        4723.9357     STORAGE                          
                 WEL =           0.0000                   WEL =           0.0000     WEL-1                            
                RCHA =           0.0000                  RCHA =           0.0000     RCH-1                            
                 CHD =     3179816.2759                   CHD =       94393.6077     CHD-FROM-IBOUND                  

           TOTAL OUT =     3454921.1706             TOTAL OUT =      256500.0001

            IN - OUT =          -1.1122              IN - OUT =      -1.0951E-04

 PERCENT DISCREPANCY =          -0.00     PERCENT DISCREPANCY =          -0.00




         TIME SUMMARY AT END OF TIME STEP    1 IN STRESS PERIOD    3
                    SECONDS     MINUTES      HOURS       DAYS        YEARS
                    -----------------------------------------------------------
   TIME STEP LENGTH 1.46626E+05  2443.8      40.730      1.6971     4.64631E-03
 STRESS PERIOD TIME 1.46626E+05  2443.8      40.730      1.6971     4.64631E-03
         TOTAL TIME 2.91143E+06  48524.      808.73      33.697     9.22575E-02


end timestep


start timestep kper="3" kstp="2" mode="normal"

 UBDSV1 SAVING     FLOW-JA-FACE ON UNIT   1015 AT TIME STEP      2, STRESS PERIOD      3
 UBDSV06 SAVING              WEL IN MODEL MUMODEL          PACKAGE MUMODEL         CONNECTED TO MODEL MUMODEL          PACKAGE WEL-1            ON UNIT   1015 AT TIME STEP      2, STRESS PERIOD      3
 UBDSV06 SAVING             RCHA IN MODEL MUMODEL          PACKAGE MUMODEL         CONNECTED TO MODEL MUMODEL          PACKAGE RCH-1            ON UNIT   1015 AT TIME STEP      2, STRESS PERIOD      3

 WEL PACKAGE (WEL-1) FLOW RATES   PERIOD      3   STEP        2
 -----------------------------------------------
   NUMBER   CELLID                    RATE      
 -----------------------------------------------
     1      (1,5,5)               0.0000000     
     2      (1,11,5)              0.0000000     
     3      (1,5,5)               0.0000000     
 -----------------------------------------------




 CHD PACKAGE (CHD-FROM-IBOUND) FLOW RATES   PERIOD      3   STEP        2
 -----------------------------------------------
   NUMBER   CELLID                    RATE      
 -----------------------------------------------
     1      (1,1,1)              -5247.6775     
     2      (1,1,2)              -5247.6698     
     3      (1,1,3)              -5247.6711     
     4      (1,1,4)              -5247.6744     
     5      (1,1,5)              -5247.6771     
     6      (1,1,6)              -5247.6795     
     7      (1,1,7)              -5247.6823     
     8      (1,1,8)              -5247.6864     
     9      (1,1,9)              -5247.6907     
     10     (1,21,1)             -5247.6919     
     11     (1,21,2)             -5247.6844     
     12     (1,21,3)             -5247.6789     
     13     (1,21,4)             -5247.6756     
     14     (1,21,5)             -5247.6726     
     15     (1,21,6)             -5247.6686     
     16     (1,21,7)             -5247.6643     
     17     (1,21,8)             -5247.6646     
     18     (1,21,9)             -5247.6796     
 -----------------------------------------------




 HEAD WILL BE SAVED ON UNIT 1016 AT END OF TIME STEP    2, STRESS PERIOD    3


  VOLUME BUDGET FOR ENTIRE MODEL AT END OF TIME STEP    2, STRESS PERIOD   3
  ---------------------------------------------------------------------------------------------------

     CUMULATIVE VOLUME      L**3       RATES FOR THIS TIME STEP      L**3/T          PACKAGE NAME    
     ------------------                 ------------------------                     ----------------

           IN:                                      IN:
           ---                                      ---
              STO-SS =      266734.2548                STO-SS =           0.0000     STORAGE                          
              STO-SY =        7996.9318                STO-SY =           0.0000     STORAGE                          
                 WEL =           0.0000                   WEL =           0.0000     WEL-1                            
                RCHA =     3702545.1178                  RCHA =      256500.0000     RCH-1                            
                 CHD =           0.0000                   CHD =           0.0000     CHD-FROM-IBOUND                  

            TOTAL IN =     3977276.3045              TOTAL IN =      256500.0000

          OUT:                                     OUT:
          ----                                     ----
              STO-SS =      587467.9621                STO-SS =      157320.6826     STORAGE                          
              STO-SY =       17631.2875                STO-SY =        4721.1282     STORAGE                          
                 WEL =           0.0000                   WEL =           0.0000     WEL-1                            
                RCHA =           0.0000                  RCHA =           0.0000     RCH-1                            
                 CHD =     3372178.1674                   CHD =       94458.1893     CHD-FROM-IBOUND                  

           TOTAL OUT =     3977277.4171             TOTAL OUT =      256500.0002

            IN - OUT =          -1.1126              IN - OUT =      -1.9138E-04

 PERCENT DISCREPANCY =          -0.00     PERCENT DISCREPANCY =          -0.00




         TIME SUMMARY AT END OF TIME STEP    2 IN STRESS PERIOD    3
                    SECONDS     MINUTES      HOURS       DAYS        YEARS
                    -----------------------------------------------------------
   TIME STEP LENGTH 1.75952E+05  2932.5      48.875      2.0365     5.57557E-03
 STRESS PERIOD TIME 3.22578E+05  5376.3      89.605      3.7335     1.02219E-02
         TOTAL TIME 3.08738E+06  51456.      857.60      35.734     9.78331E-02


end timestep


start timestep kper="3" kstp="3" mode="normal"

 UBDSV1 SAVING     FLOW-JA-FACE ON UNIT   1015 AT TIME STEP      3, STRESS PERIOD      3
 UBDSV06 SAVING              WEL IN MODEL MUMODEL          PACKAGE MUMODEL         CONNECTED TO MODEL MUMODEL          PACKAGE WEL-1            ON UNIT   1015 AT TIME STEP      3, STRESS PERIOD      3
 UBDSV06 SAVING             RCHA IN MODEL MUMODEL          PACKAGE MUMODEL         CONNECTED TO MODEL MUMODEL          PACKAGE RCH-1            ON UNIT   1015 AT TIME STEP      3, STRESS PERIOD      3

 WEL PACKAGE (WEL-1) FLOW RATES   PERIOD      3   STEP        3
 -----------------------------------------------
   NUMBER   CELLID                    RATE      
 -----------------------------------------------
     1      (1,5,5)               0.0000000     
     2      (1,11,5)              0.0000000     
     3      (1,5,5)               0.0000000     
 -----------------------------------------------




 CHD PACKAGE (CHD-FROM-IBOUND) FLOW RATES   PERIOD      3   STEP        3
 -----------------------------------------------
   NUMBER   CELLID                    RATE      
 -----------------------------------------------
     1      (1,1,1)              -5251.9635     
     2      (1,1,2)              -5251.9559     
     3      (1,1,3)              -5251.9572     
     4      (1,1,4)              -5251.9604     
     5      (1,1,5)              -5251.9632     
     6      (1,1,6)              -5251.9656     
     7      (1,1,7)              -5251.9684     
     8      (1,1,8)              -5251.9724     
     9      (1,1,9)              -5251.9767     
     10     (1,21,1)             -5251.9779     
     11     (1,21,2)             -5251.9704     
     12     (1,21,3)             -5251.9649     
     13     (1,21,4)             -5251.9617     
     14     (1,21,5)             -5251.9587     
     15     (1,21,6)             -5251.9547     
     16     (1,21,7)             -5251.9505     
     17     (1,21,8)             -5251.9508     
     18     (1,21,9)             -5251.9657     
 -----------------------------------------------




 HEAD WILL BE SAVED ON UNIT 1016 AT END OF TIME STEP    3, STRESS PERIOD    3


  VOLUME BUDGET FOR ENTIRE MODEL AT END OF TIME STEP    3, STRESS PERIOD   3
  ---------------------------------------------------------------------------------------------------

     CUMULATIVE VOLUME      L**3       RATES FOR THIS TIME STEP      L**3/T          PACKAGE NAME    
     ------------------                 ------------------------                     ----------------

           IN:                                      IN:
           ---                                      ---
              STO-SS =      266734.2548                STO-SS =           0.0000     STORAGE                          
              STO-SY =        7996.9318                STO-SY =           0.0000     STORAGE                          
                 WEL =           0.0000                   WEL =           0.0000     WEL-1                            
                RCHA =     4329372.6131                  RCHA =      256500.0000     RCH-1                            
                 CHD =           0.0000                   CHD =           0.0000     CHD-FROM-IBOUND                  

            TOTAL IN =     4604103.7998              TOTAL IN =      256500.0000

          OUT:                                     OUT:
          ----                                     ----
              STO-SS =      971743.4852                STO-SS =      157246.8859     STORAGE                          
              STO-SY =       29160.4549                STO-SY =        4717.7756     STORAGE                          
                 WEL =           0.0000                   WEL =           0.0000     WEL-1                            
                RCHA =           0.0000                  RCHA =           0.0000     RCH-1                            
                 CHD =     3603200.9731                   CHD =       94535.3388     CHD-FROM-IBOUND                  

           TOTAL OUT =     4604104.9132             TOTAL OUT =      256500.0003

            IN - OUT =          -1.1134              IN - OUT =      -3.2587E-04

 PERCENT DISCREPANCY =          -0.00     PERCENT DISCREPANCY =          -0.00




         TIME SUMMARY AT END OF TIME STEP    3 IN STRESS PERIOD    3
                    SECONDS     MINUTES      HOURS       DAYS        YEARS
                    -----------------------------------------------------------
   TIME STEP LENGTH 2.11142E+05  3519.0      58.651      2.4438     6.69068E-03
 STRESS PERIOD TIME 5.33720E+05  8895.3      148.26      6.1773     1.69126E-02
         TOTAL TIME 3.29852E+06  54975.      916.26      38.177     0.10452    


end timestep


start timestep kper="3" kstp="4" mode="normal"

 UBDSV1 SAVING     FLOW-JA-FACE ON UNIT   1015 AT TIME STEP      4, STRESS PERIOD      3
 UBDSV06 SAVING              WEL IN MODEL MUMODEL          PACKAGE MUMODEL         CONNECTED TO MODEL MUMODEL          PACKAGE WEL-1            ON UNIT   1015 AT TIME STEP      4, STRESS PERIOD      3
 UBDSV06 SAVING             RCHA IN MODEL MUMODEL          PACKAGE MUMODEL         CONNECTED TO MODEL MUMODEL          PACKAGE RCH-1            ON UNIT   1015 AT TIME STEP      4, STRESS PERIOD      3

 WEL PACKAGE (WEL-1) FLOW RATES   PERIOD      3   STEP        4
 -----------------------------------------------
   NUMBER   CELLID                    RATE      
 -----------------------------------------------
     1      (1,5,5)               0.0000000     
     2      (1,11,5)              0.0000000     
     3      (1,5,5)               0.0000000     
 -----------------------------------------------




 CHD PACKAGE (CHD-FROM-IBOUND) FLOW RATES   PERIOD      3   STEP        4
 -----------------------------------------------
   NUMBER   CELLID                    RATE      
 -----------------------------------------------
     1      (1,1,1)              -5257.0793     
     2      (1,1,2)              -5257.0717     
     3      (1,1,3)              -5257.0730     
     4      (1,1,4)              -5257.0762     
     5      (1,1,5)              -5257.0789     
     6      (1,1,6)              -5257.0813     
     7      (1,1,7)              -5257.0841     
     8      (1,1,8)              -5257.0881     
     9      (1,1,9)              -5257.0924     
     10     (1,21,1)             -5257.0935     
     11     (1,21,2)             -5257.0861     
     12     (1,21,3)             -5257.0806     
     13     (1,21,4)             -5257.0774     
     14     (1,21,5)             -5257.0744     
     15     (1,21,6)             -5257.0704     
     16     (1,21,7)             -5257.0663     
     17     (1,21,8)             -5257.0667     
     18     (1,21,9)             -5257.0814     
 -----------------------------------------------




 HEAD WILL BE SAVED ON UNIT 1016 AT END OF TIME STEP    4, STRESS PERIOD    3


  VOLUME BUDGET FOR ENTIRE MODEL AT END OF TIME STEP    4, STRESS PERIOD   3
  ---------------------------------------------------------------------------------------------------

     CUMULATIVE VOLUME      L**3       RATES FOR THIS TIME STEP      L**3/T          PACKAGE NAME    
     ------------------                 ------------------------                     ----------------

           IN:                                      IN:
           ---                                      ---
              STO-SS =      266734.2548                STO-SS =           0.0000     STORAGE                          
              STO-SY =        7996.9318                STO-SY =           0.0000     STORAGE                          
                 WEL =           0.0000                   WEL =           0.0000     WEL-1                            
                RCHA =     5081565.6075                  RCHA =      256500.0000     RCH-1                            
                 CHD =           0.0000                   CHD =           0.0000     CHD-FROM-IBOUND                  

            TOTAL IN =     5356296.7941              TOTAL IN =      256500.0000

          OUT:                                     OUT:
          ----                                     ----
              STO-SS =     1432615.8075                STO-SS =      157158.8031     STORAGE                          
              STO-SY =       42983.7260                STO-SY =        4713.7756     STORAGE                          
                 WEL =           0.0000                   WEL =           0.0000     WEL-1                            
                RCHA =           0.0000                  RCHA =           0.0000     RCH-1                            
                 CHD =     3880698.3757                   CHD =       94627.4218     CHD-FROM-IBOUND                  

           TOTAL OUT =     5356297.9091             TOTAL OUT =      256500.0005

            IN - OUT =          -1.1150              IN - OUT =      -5.4877E-04

 PERCENT DISCREPANCY =          -0.00     PERCENT DISCREPANCY =          -0.00




         TIME SUMMARY AT END OF TIME STEP    4 IN STRESS PERIOD    3
                    SECONDS     MINUTES      HOURS       DAYS        YEARS
                    -----------------------------------------------------------
   TIME STEP LENGTH 2.53370E+05  4222.8      70.381      2.9325     8.02882E-03
 STRESS PERIOD TIME 7.87090E+05  13118.      218.64      9.1098     2.49414E-02
         TOTAL TIME 3.55189E+06  59198.      986.64      41.110     0.11255    


end timestep


start timestep kper="3" kstp="5" mode="normal"

 UBDSV1 SAVING     FLOW-JA-FACE ON UNIT   1015 AT TIME STEP      5, STRESS PERIOD      3
 UBDSV06 SAVING              WEL IN MODEL MUMODEL          PACKAGE MUMODEL         CONNECTED TO MODEL MUMODEL          PACKAGE WEL-1            ON UNIT   1015 AT TIME STEP      5, STRESS PERIOD      3
 UBDSV06 SAVING             RCHA IN MODEL MUMODEL          PACKAGE MUMODEL         CONNECTED TO MODEL MUMODEL          PACKAGE RCH-1            ON UNIT   1015 AT TIME STEP      5, STRESS PERIOD      3

 WEL PACKAGE (WEL-1) FLOW RATES   PERIOD      3   STEP        5
 -----------------------------------------------
   NUMBER   CELLID                    RATE      
 -----------------------------------------------
     1      (1,5,5)               0.0000000     
     2      (1,11,5)              0.0000000     
     3      (1,5,5)               0.0000000     
 -----------------------------------------------




 CHD PACKAGE (CHD-FROM-IBOUND) FLOW RATES   PERIOD      3   STEP        5
 -----------------------------------------------
   NUMBER   CELLID                    RATE      
 -----------------------------------------------
     1      (1,1,1)              -5263.1789     
     2      (1,1,2)              -5263.1715     
     3      (1,1,3)              -5263.1727     
     4      (1,1,4)              -5263.1758     
     5      (1,1,5)              -5263.1786     
     6      (1,1,6)              -5263.1809     
     7      (1,1,7)              -5263.1837     
     8      (1,1,8)              -5263.1877     
     9      (1,1,9)              -5263.1920     
     10     (1,21,1)             -5263.1930     
     11     (1,21,2)             -5263.1857     
     12     (1,21,3)             -5263.1803     
     13     (1,21,4)             -5263.1771     
     14     (1,21,5)             -5263.1741     
     15     (1,21,6)             -5263.1702     
     16     (1,21,7)             -5263.1661     
     17     (1,21,8)             -5263.1666     
     18     (1,21,9)             -5263.1811     
 -----------------------------------------------




 HEAD WILL BE SAVED ON UNIT 1016 AT END OF TIME STEP    5, STRESS PERIOD    3


  VOLUME BUDGET FOR ENTIRE MODEL AT END OF TIME STEP    5, STRESS PERIOD   3
  ---------------------------------------------------------------------------------------------------

     CUMULATIVE VOLUME      L**3       RATES FOR THIS TIME STEP      L**3/T          PACKAGE NAME    
     ------------------                 ------------------------                     ----------------

           IN:                                      IN:
           ---                                      ---
              STO-SS =      266734.2548                STO-SS =           0.0000     STORAGE                          
              STO-SY =        7996.9318                STO-SY =           0.0000     STORAGE                          
                 WEL =           0.0000                   WEL =           0.0000     WEL-1                            
                RCHA =     5984197.2007                  RCHA =      256500.0000     RCH-1                            
                 CHD =           0.0000                   CHD =           0.0000     CHD-FROM-IBOUND                  

            TOTAL IN =     6258928.3874              TOTAL IN =      256500.0000

          OUT:                                     OUT:
          ----                                     ----
              STO-SS =     1985293.0012                STO-SS =      157053.7762     STORAGE                          
              STO-SY =       59554.8763                STO-SY =        4709.0087     STORAGE                          
                 WEL =           0.0000                   WEL =           0.0000     WEL-1                            
                RCHA =           0.0000                  RCHA =           0.0000     RCH-1                            
                 CHD =     4214081.6282                   CHD =       94737.2160     CHD-FROM-IBOUND                  

           TOTAL OUT =     6258929.5057             TOTAL OUT =      256500.0009

            IN - OUT =          -1.1183              IN - OUT =      -9.3568E-04

 PERCENT DISCREPANCY =          -0.00     PERCENT DISCREPANCY =          -0.00




         TIME SUMMARY AT END OF TIME STEP    5 IN STRESS PERIOD    3
                    SECONDS     MINUTES      HOURS       DAYS        YEARS
                    -----------------------------------------------------------
   TIME STEP LENGTH 3.04044E+05  5067.4      84.457      3.5190     9.63458E-03
 STRESS PERIOD TIME 1.09113E+06  18186.      303.09      12.629     3.45760E-02
         TOTAL TIME 3.85593E+06  64266.      1071.1      44.629     0.12219    


end timestep


start timestep kper="3" kstp="6" mode="normal"

 UBDSV1 SAVING     FLOW-JA-FACE ON UNIT   1015 AT TIME STEP      6, STRESS PERIOD      3
 UBDSV06 SAVING              WEL IN MODEL MUMODEL          PACKAGE MUMODEL         CONNECTED TO MODEL MUMODEL          PACKAGE WEL-1            ON UNIT   1015 AT TIME STEP      6, STRESS PERIOD      3
 UBDSV06 SAVING             RCHA IN MODEL MUMODEL          PACKAGE MUMODEL         CONNECTED TO MODEL MUMODEL          PACKAGE RCH-1            ON UNIT   1015 AT TIME STEP      6, STRESS PERIOD      3

 WEL PACKAGE (WEL-1) FLOW RATES   PERIOD      3   STEP        6
 -----------------------------------------------
   NUMBER   CELLID                    RATE      
[...]

           TOTAL OUT =   114612312.9463             TOTAL OUT =      133506.5445

            IN - OUT =          -4.1895              IN - OUT =      -9.8789E-05

 PERCENT DISCREPANCY =          -0.00     PERCENT DISCREPANCY =          -0.00




         TIME SUMMARY AT END OF TIME STEP    4 IN STRESS PERIOD   25
                    SECONDS     MINUTES      HOURS       DAYS        YEARS
                    -----------------------------------------------------------
   TIME STEP LENGTH 2.80517E+05  4675.3      77.921      3.2467     8.88905E-03
 STRESS PERIOD TIME 8.71421E+05  14524.      242.06      10.086     2.76137E-02
         TOTAL TIME 6.13514E+07 1.02252E+06  17042.      710.09      1.9441    


end timestep


start timestep kper="25" kstp="5" mode="normal"

 UBDSV1 SAVING     FLOW-JA-FACE ON UNIT   1015 AT TIME STEP      5, STRESS PERIOD     25
 UBDSV06 SAVING              WEL IN MODEL MUMODEL          PACKAGE MUMODEL         CONNECTED TO MODEL MUMODEL          PACKAGE WEL-1            ON UNIT   1015 AT TIME STEP      5, STRESS PERIOD     25
 UBDSV06 SAVING             RCHA IN MODEL MUMODEL          PACKAGE MUMODEL         CONNECTED TO MODEL MUMODEL          PACKAGE RCH-1            ON UNIT   1015 AT TIME STEP      5, STRESS PERIOD     25

 WEL PACKAGE (WEL-1) FLOW RATES   PERIOD     25   STEP        5
 -----------------------------------------------
   NUMBER   CELLID                    RATE      
 -----------------------------------------------
     1      (1,5,5)              -40000.000     
     2      (1,11,5)              0.0000000     
     3      (1,5,5)               0.0000000     
 -----------------------------------------------




 CHD PACKAGE (CHD-FROM-IBOUND) FLOW RATES   PERIOD     25   STEP        5
 -----------------------------------------------
   NUMBER   CELLID                    RATE      
 -----------------------------------------------
     1      (1,1,1)              -5199.6472     
     2      (1,1,2)              -5198.6177     
     3      (1,1,3)              -5193.2267     
     4      (1,1,4)              -5174.1312     
     5      (1,1,5)              -5141.8462     
     6      (1,1,6)              -5174.1329     
     7      (1,1,7)              -5193.2298     
     8      (1,1,8)              -5198.6218     
     9      (1,1,9)              -5199.6517     
     10     (1,21,1)             -5199.8507     
     11     (1,21,2)             -5199.8495     
     12     (1,21,3)             -5199.8480     
     13     (1,21,4)             -5199.8468     
     14     (1,21,5)             -5199.8460     
     15     (1,21,6)             -5199.8459     
     16     (1,21,7)             -5199.8469     
     17     (1,21,8)             -5199.8490     
     18     (1,21,9)             -5199.8510     
 -----------------------------------------------




 HEAD WILL BE SAVED ON UNIT 1016 AT END OF TIME STEP    5, STRESS PERIOD   25


  VOLUME BUDGET FOR ENTIRE MODEL AT END OF TIME STEP    5, STRESS PERIOD  25
  ---------------------------------------------------------------------------------------------------

     CUMULATIVE VOLUME      L**3       RATES FOR THIS TIME STEP      L**3/T          PACKAGE NAME    
     ------------------                 ------------------------                     ----------------

           IN:                                      IN:
           ---                                      ---
              STO-SS =    46265119.2796                STO-SS =       87995.5557     STORAGE                          
              STO-SY =     1416683.8644                STO-SY =        2726.1829     STORAGE                          
                 WEL =           0.0000                   WEL =           0.0000     WEL-1                            
                RCHA =    67450520.9358                  RCHA =       42750.0000     RCH-1                            
                 CHD =           0.0000                   CHD =           0.0000     CHD-FROM-IBOUND                  

            TOTAL IN =   115132324.0798              TOTAL IN =      133471.7386

          OUT:                                     OUT:
          ----                                     ----
              STO-SS =    32138818.0732                STO-SS =           0.0000     STORAGE                          
              STO-SY =      960715.3883                STO-SY =           0.0000     STORAGE                          
                 WEL =    13919278.5365                   WEL =       40000.0000     WEL-1                            
                RCHA =           0.0000                  RCHA =           0.0000     RCH-1                            
                 CHD =    68113516.2719                   CHD =       93471.7387     CHD-FROM-IBOUND                  

           TOTAL OUT =   115132328.2699             TOTAL OUT =      133471.7387

            IN - OUT =          -4.1902              IN - OUT =      -1.6628E-04

 PERCENT DISCREPANCY =          -0.00     PERCENT DISCREPANCY =          -0.00




         TIME SUMMARY AT END OF TIME STEP    5 IN STRESS PERIOD   25
                    SECONDS     MINUTES      HOURS       DAYS        YEARS
                    -----------------------------------------------------------
   TIME STEP LENGTH 3.36621E+05  5610.3      93.506      3.8961     1.06669E-02
 STRESS PERIOD TIME 1.20804E+06  20134.      335.57      13.982     3.82805E-02
         TOTAL TIME 6.16880E+07 1.02813E+06  17136.      713.98      1.9548    


end timestep


start timestep kper="25" kstp="6" mode="normal"

 UBDSV1 SAVING     FLOW-JA-FACE ON UNIT   1015 AT TIME STEP      6, STRESS PERIOD     25
 UBDSV06 SAVING              WEL IN MODEL MUMODEL          PACKAGE MUMODEL         CONNECTED TO MODEL MUMODEL          PACKAGE WEL-1            ON UNIT   1015 AT TIME STEP      6, STRESS PERIOD     25
 UBDSV06 SAVING             RCHA IN MODEL MUMODEL          PACKAGE MUMODEL         CONNECTED TO MODEL MUMODEL          PACKAGE RCH-1            ON UNIT   1015 AT TIME STEP      6, STRESS PERIOD     25

 WEL PACKAGE (WEL-1) FLOW RATES   PERIOD     25   STEP        6
 -----------------------------------------------
   NUMBER   CELLID                    RATE      
 -----------------------------------------------
     1      (1,5,5)              -40000.000     
     2      (1,11,5)              0.0000000     
     3      (1,5,5)               0.0000000     
 -----------------------------------------------




 CHD PACKAGE (CHD-FROM-IBOUND) FLOW RATES   PERIOD     25   STEP        6
 -----------------------------------------------
   NUMBER   CELLID                    RATE      
 -----------------------------------------------
     1      (1,1,1)              -5197.6027     
     2      (1,1,2)              -5196.5074     
     3      (1,1,3)              -5190.8353     
     4      (1,1,4)              -5170.9770     
     5      (1,1,5)              -5137.8161     
     6      (1,1,6)              -5170.9786     
     7      (1,1,7)              -5190.8384     
     8      (1,1,8)              -5196.5114     
     9      (1,1,9)              -5197.6071     
     10     (1,21,1)             -5197.8224     
     11     (1,21,2)             -5197.8212     
     12     (1,21,3)             -5197.8197     
     13     (1,21,4)             -5197.8185     
     14     (1,21,5)             -5197.8178     
     15     (1,21,6)             -5197.8177     
     16     (1,21,7)             -5197.8186     
     17     (1,21,8)             -5197.8207     
     18     (1,21,9)             -5197.8227     
 -----------------------------------------------




 HEAD WILL BE SAVED ON UNIT 1016 AT END OF TIME STEP    6, STRESS PERIOD   25


  VOLUME BUDGET FOR ENTIRE MODEL AT END OF TIME STEP    6, STRESS PERIOD  25
  ---------------------------------------------------------------------------------------------------

     CUMULATIVE VOLUME      L**3       RATES FOR THIS TIME STEP      L**3/T          PACKAGE NAME    
     ------------------                 ------------------------                     ----------------

           IN:                                      IN:
           ---                                      ---
              STO-SS =    46676334.9565                STO-SS =       87955.2148     STORAGE                          
              STO-SY =     1429423.2587                STO-SY =        2724.8382     STORAGE                          
                 WEL =           0.0000                   WEL =           0.0000     WEL-1                            
                RCHA =    67650389.3601                  RCHA =       42750.0000     RCH-1                            
                 CHD =           0.0000                   CHD =           0.0000     CHD-FROM-IBOUND                  

            TOTAL IN =   115756147.5752              TOTAL IN =      133430.0530

          OUT:                                     OUT:
          ----                                     ----
              STO-SS =    32138818.0732                STO-SS =           0.0000     STORAGE                          
              STO-SY =      960715.3883                STO-SY =           0.0000     STORAGE                          
                 WEL =    14106289.9275                   WEL =       40000.0000     WEL-1                            
                RCHA =           0.0000                  RCHA =           0.0000     RCH-1                            
                 CHD =    68550328.3776                   CHD =       93430.0533     CHD-FROM-IBOUND                  

           TOTAL OUT =   115756151.7667             TOTAL OUT =      133430.0533

            IN - OUT =          -4.1915              IN - OUT =      -2.7987E-04

 PERCENT DISCREPANCY =          -0.00     PERCENT DISCREPANCY =          -0.00




         TIME SUMMARY AT END OF TIME STEP    6 IN STRESS PERIOD   25
                    SECONDS     MINUTES      HOURS       DAYS        YEARS
                    -----------------------------------------------------------
   TIME STEP LENGTH 4.03945E+05  6732.4      112.21      4.6753     1.28002E-02
 STRESS PERIOD TIME 1.61199E+06  26866.      447.77      18.657     5.10808E-02
         TOTAL TIME 6.20920E+07 1.03487E+06  17248.      718.66      1.9676    


end timestep


start timestep kper="25" kstp="7" mode="normal"

 UBDSV1 SAVING     FLOW-JA-FACE ON UNIT   1015 AT TIME STEP      7, STRESS PERIOD     25
 UBDSV06 SAVING              WEL IN MODEL MUMODEL          PACKAGE MUMODEL         CONNECTED TO MODEL MUMODEL          PACKAGE WEL-1            ON UNIT   1015 AT TIME STEP      7, STRESS PERIOD     25
 UBDSV06 SAVING             RCHA IN MODEL MUMODEL          PACKAGE MUMODEL         CONNECTED TO MODEL MUMODEL          PACKAGE RCH-1            ON UNIT   1015 AT TIME STEP      7, STRESS PERIOD     25

 WEL PACKAGE (WEL-1) FLOW RATES   PERIOD     25   STEP        7
 -----------------------------------------------
   NUMBER   CELLID                    RATE      
 -----------------------------------------------
     1      (1,5,5)              -40000.000     
     2      (1,11,5)              0.0000000     
     3      (1,5,5)               0.0000000     
 -----------------------------------------------




 CHD PACKAGE (CHD-FROM-IBOUND) FLOW RATES   PERIOD     25   STEP        7
 -----------------------------------------------
   NUMBER   CELLID                    RATE      
 -----------------------------------------------
     1      (1,1,1)              -5195.1640     
     2      (1,1,2)              -5193.9854     
     3      (1,1,3)              -5187.9630     
     4      (1,1,4)              -5167.1678     
     5      (1,1,5)              -5132.9495     
     6      (1,1,6)              -5167.1695     
     7      (1,1,7)              -5187.9661     
     8      (1,1,8)              -5193.9894     
     9      (1,1,9)              -5195.1684     
     10     (1,21,1)             -5195.4046     
     11     (1,21,2)             -5195.4034     
     12     (1,21,3)             -5195.4020     
     13     (1,21,4)             -5195.4008     
     14     (1,21,5)             -5195.4000     
     15     (1,21,6)             -5195.3999     
     16     (1,21,7)             -5195.4009     
     17     (1,21,8)             -5195.4030     
     18     (1,21,9)             -5195.4049     
 -----------------------------------------------




 HEAD WILL BE SAVED ON UNIT 1016 AT END OF TIME STEP    7, STRESS PERIOD   25


  VOLUME BUDGET FOR ENTIRE MODEL AT END OF TIME STEP    7, STRESS PERIOD  25
  ---------------------------------------------------------------------------------------------------

     CUMULATIVE VOLUME      L**3       RATES FOR THIS TIME STEP      L**3/T          PACKAGE NAME    
     ------------------                 ------------------------                     ----------------

           IN:                                      IN:
           ---                                      ---
              STO-SS =    47169522.7498                STO-SS =       87906.9078     STORAGE                          
              STO-SY =     1444701.5345                STO-SY =        2723.2344     STORAGE                          
                 WEL =           0.0000                   WEL =           0.0000     WEL-1                            
                RCHA =    67890231.4691                  RCHA =       42750.0000     RCH-1                            
                 CHD =           0.0000                   CHD =           0.0000     CHD-FROM-IBOUND                  

            TOTAL IN =   116504455.7534              TOTAL IN =      133380.1422

          OUT:                                     OUT:
          ----                                     ----
              STO-SS =    32138818.0732                STO-SS =           0.0000     STORAGE                          
              STO-SY =      960715.3883                STO-SY =           0.0000     STORAGE                          
                 WEL =    14330703.5968                   WEL =       40000.0000     WEL-1                            
                RCHA =           0.0000                  RCHA =           0.0000     RCH-1                            
                 CHD =    69074222.8891                   CHD =       93380.1427     CHD-FROM-IBOUND                  

           TOTAL OUT =   116504459.9475             TOTAL OUT =      133380.1427

            IN - OUT =          -4.1941              IN - OUT =      -4.6611E-04

 PERCENT DISCREPANCY =          -0.00     PERCENT DISCREPANCY =          -0.00




         TIME SUMMARY AT END OF TIME STEP    7 IN STRESS PERIOD   25
                    SECONDS     MINUTES      HOURS       DAYS        YEARS
                    -----------------------------------------------------------
   TIME STEP LENGTH 4.84734E+05  8078.9      134.65      5.6103     1.53603E-02
 STRESS PERIOD TIME 2.09672E+06  34945.      582.42      24.268     6.64410E-02
         TOTAL TIME 6.25767E+07 1.04295E+06  17382.      724.27      1.9829    


end timestep


start timestep kper="25" kstp="8" mode="normal"

 UBDSV1 SAVING     FLOW-JA-FACE ON UNIT   1015 AT TIME STEP      8, STRESS PERIOD     25
 UBDSV06 SAVING              WEL IN MODEL MUMODEL          PACKAGE MUMODEL         CONNECTED TO MODEL MUMODEL          PACKAGE WEL-1            ON UNIT   1015 AT TIME STEP      8, STRESS PERIOD     25
 UBDSV06 SAVING             RCHA IN MODEL MUMODEL          PACKAGE MUMODEL         CONNECTED TO MODEL MUMODEL          PACKAGE RCH-1            ON UNIT   1015 AT TIME STEP      8, STRESS PERIOD     25

 WEL PACKAGE (WEL-1) FLOW RATES   PERIOD     25   STEP        8
 -----------------------------------------------
   NUMBER   CELLID                    RATE      
 -----------------------------------------------
     1      (1,5,5)              -40000.000     
     2      (1,11,5)              0.0000000     
     3      (1,5,5)               0.0000000     
 -----------------------------------------------




 CHD PACKAGE (CHD-FROM-IBOUND) FLOW RATES   PERIOD     25   STEP        8
 -----------------------------------------------
   NUMBER   CELLID                    RATE      
 -----------------------------------------------
     1      (1,1,1)              -5192.2583     
     2      (1,1,2)              -5190.9734     
     3      (1,1,3)              -5184.5114     
     4      (1,1,4)              -5162.5618     
     5      (1,1,5)              -5127.0662     
     6      (1,1,6)              -5162.5634     
     7      (1,1,7)              -5184.5144     
     8      (1,1,8)              -5190.9774     
     9      (1,1,9)              -5192.2626     
     10     (1,21,1)             -5192.5261     
     11     (1,21,2)             -5192.5250     
     12     (1,21,3)             -5192.5235     
     13     (1,21,4)             -5192.5224     
     14     (1,21,5)             -5192.5216     
     15     (1,21,6)             -5192.5215     
     16     (1,21,7)             -5192.5225     
     17     (1,21,8)             -5192.5246     
     18     (1,21,9)             -5192.5265     
 -----------------------------------------------




 HEAD WILL BE SAVED ON UNIT 1016 AT END OF TIME STEP    8, STRESS PERIOD   25


  VOLUME BUDGET FOR ENTIRE MODEL AT END OF TIME STEP    8, STRESS PERIOD  25
  ---------------------------------------------------------------------------------------------------

     CUMULATIVE VOLUME      L**3       RATES FOR THIS TIME STEP      L**3/T          PACKAGE NAME    
     ------------------                 ------------------------                     ----------------

           IN:                                      IN:
           ---                                      ---
              STO-SS =    47760958.7687                STO-SS =       87849.0781     STORAGE                          
              STO-SY =     1463022.6021                STO-SY =        2721.3238     STORAGE                          
                 WEL =           0.0000                   WEL =           0.0000     WEL-1                            
                RCHA =    68178042.0000                  RCHA =       42750.0000     RCH-1                            
                 CHD =           0.0000                   CHD =           0.0000     CHD-FROM-IBOUND                  

            TOTAL IN =   117402023.3708              TOTAL IN =      133320.4019

          OUT:                                     OUT:
          ----                                     ----
              STO-SS =    32138818.0732                STO-SS =           0.0000     STORAGE                          
              STO-SY =      960715.3883                STO-SY =           0.0000     STORAGE                          
                 WEL =    14600000.0000                   WEL =       40000.0000     WEL-1                            
                RCHA =           0.0000                  RCHA =           0.0000     RCH-1                            
                 CHD =    69702494.1085                   CHD =       93320.4027     CHD-FROM-IBOUND                  

           TOTAL OUT =   117402027.5700             TOTAL OUT =      133320.4027

            IN - OUT =          -4.1992              IN - OUT =      -7.6788E-04

 PERCENT DISCREPANCY =          -0.00     PERCENT DISCREPANCY =          -0.00




         TIME SUMMARY AT END OF TIME STEP    8 IN STRESS PERIOD   25
                    SECONDS     MINUTES      HOURS       DAYS        YEARS
                    -----------------------------------------------------------
   TIME STEP LENGTH 5.81680E+05  9694.7      161.58      6.7324     1.84323E-02
 STRESS PERIOD TIME 2.67840E+06  44640.      744.00      31.000     8.48734E-02
         TOTAL TIME 6.31584E+07 1.05264E+06  17544.      731.00      2.0014    


end timestep

