                                   MODFLOW 6
                U.S. GEOLOGICAL SURVEY MODULAR HYDROLOGIC MODEL
                          GROUNDWATER FLOW MODEL (GWF)
                            VERSION 6.4.4 02/13/2024

   MODFLOW 6 compiled Feb 19 2024 14:20:00 with Intel(R) Fortran Intel(R) 64
   Compiler Classic for applications running on Intel(R) 64, Version 2021.7.0
                             Build 20220726_000000

This software has been approved for release by the U.S. Geological 
Survey (USGS). Although the software has been subjected to rigorous 
review, the USGS reserves the right to update the software as needed 
pursuant to further analysis and review. No warranty, expressed or 
implied, is made by the USGS or the U.S. Government as to the 
functionality of the software and related material nor shall the 
fact of release constitute any such warranty. Furthermore, the 
software is released on condition that neither the USGS nor the U.S. 
Government shall be held liable for any damages resulting from its 
authorized or unauthorized use. Also refer to the USGS Water 
Resources Software User Rights Notice for complete use, copyright, 
and distribution information.


As a work of the United States Government, this USGS product is 
in the public domain within the United States. You can copy, 
modify, distribute, and perform the work, even for commercial 
purposes, all without asking permission. Additionally, USGS 
waives copyright and related rights in the work worldwide 
through CC0 1.0 Universal Public Domain Dedication 
(https://creativecommons.org/publicdomain/zero/1.0/).

The following GNU Lesser General Public License (LGPL) libraries
are used in this USGS product:

    SPARSKIT version 2.0
      ilut, luson, and qsplit 
      (https://www-users.cse.umn.edu/~saad/software/SPARSKIT/)

    RCM - Reverse Cuthill McKee Ordering
      (https://people.math.sc.edu/Burkardt/f_src/rcm/rcm.html)

    BLAS - Basic Linear Algebra Subprograms Level 1
      (https://people.math.sc.edu/Burkardt/f_src/blas1_d/blas1_d.html)

    SPARSEKIT - Sparse Matrix Utility Package
      amux, dperm, dvperm, rperm, and cperm
      (https://people.sc.fsu.edu/~jburkardt/f77_src/sparsekit/sparsekit.html)

The following BSD-3 License libraries are used in this USGS product:

    Modern Fortran DAG Library
      Copyright (c) 2018, Jacob Williams
      All rights reserved.
      (https://github.com/jacobwilliams/daglib)

MODFLOW 6 compiler options: /O2 /heap-arrays:0 /fpe:0 /traceback /nologo /fpp
/c /module:win64\mod_mf6\ /object:win64\obj_mf6\

System command used to initiate simulation:
mf6.exe

MODFLOW was compiled using uniform precision.

Real Variables
  KIND: 8
  TINY (smallest non-zero value):    2.225074-308
  HUGE (largest value):    1.797693+308
  PRECISION: 15
  SIZE IN BITS: 64

Integer Variables
  KIND: 4
  HUGE (largest value): 2147483647
  SIZE IN BITS: 32

Long Integer Variables
  KIND: 8
  HUGE (largest value): 9223372036854775807
  SIZE IN BITS: 64

Logical Variables
  KIND: 4
  SIZE IN BITS: 32
 
 NAMEFILE OPTIONS:
 END NAMEFILE OPTIONS:

 DIS -- STRUCTURED GRID DISCRETIZATION PACKAGE, VERSION 2 : 3/27/2014 - INPUT READ FROM MEMPATH: __INPUT__/MUMODEL/DIS                             


 NPF -- NODE PROPERTY FLOW PACKAGE, VERSION 1, 3/30/2015 INPUT READ FROM MEMPATH: __INPUT__/MUMODEL/NPF                             


 IC -- Initial Conditions Package, Version 8, 3/28/2015 input read from mempath: __INPUT__/MUMODEL/IC                              


 Setting Discretization Options
    Model length unit [0=UND, 1=FEET, 2=METERS, 3=CENTIMETERS] set as 0
 End Setting Discretization Options

 Setting Discretization Dimensions
    NLAY = 1
    NROW = 21
    NCOL = 9
 End Setting Discretization Dimensions

 Setting Discretization Griddata
    DELR set from input file
    DELC set from input file
    TOP set from input file
    BOTM set from input file
 End Setting Discretization Griddata

 Setting NPF Options
    Cell-by-cell flow information will be saved to binary file whenever ICBCFL is not zero.
    Vertical flow will be adjusted for perched conditions.
    Vertical conductance varies with water table.
    Vertical conductance accounts for dewatered portion of an underlying cell.
 End Setting NPF Options

 Setting NPF Griddata
    ICELLTYPE set from input file
    K set from input file
    K33 not provided.  Setting K33 = K.
    K22 not provided.  Setting K22 = K.
 End Setting NPF Griddata


 WEL   -- WEL PACKAGE, VERSION 8, 2/22/2014 INPUT READ FROM MEMPATH: __INPUT__/MUMODEL/WEL-1                           

 PROCESSING WEL BASE OPTIONS
    FLOWS WILL BE SAVED TO BUDGET FILE SPECIFIED IN OUTPUT CONTROL
    LISTS OF WEL CELLS WILL BE PRINTED.
    WEL FLOWS WILL BE PRINTED TO LISTING FILE.
 END OF WEL BASE OPTIONS

 PROCESSING WEL OPTIONS
 END OF WEL OPTIONS

 PROCESSING WEL BASE DIMENSIONS
    MAXBOUND =       3
 END OF WEL BASE DIMENSIONS

 RCH   -- RCH PACKAGE, VERSION 8, 2/22/2014 INPUT READ FROM MEMPATH: __INPUT__/MUMODEL/RCH-1                           

 PROCESSING RCH BASE OPTIONS
    FLOWS WILL BE SAVED TO BUDGET FILE SPECIFIED IN OUTPUT CONTROL
 END OF RCH BASE OPTIONS

 PROCESSING RCHA OPTIONS
    RECHARGE INPUT WILL BE READ AS ARRAY(S).
 END OF RCHA OPTIONS

 CHD   -- CHD PACKAGE, VERSION 8, 2/22/2014 INPUT READ FROM MEMPATH: __INPUT__/MUMODEL/CHD-FROM-IBOUND                 

 PROCESSING CHD BASE OPTIONS
    LISTS OF CHD CELLS WILL BE PRINTED.
    CHD FLOWS WILL BE PRINTED TO LISTING FILE.
 END OF CHD BASE OPTIONS

 PROCESSING CHD BASE DIMENSIONS
    MAXBOUND =      18
 END OF CHD BASE DIMENSIONS
    STRT set from input file

 STO -- STORAGE PACKAGE, VERSION 1, 5/19/2014 INPUT READ FROM UNIT 1011


 # File generated by Flopy version 3.5.0 on 04/04/2024 at 11:58:26.
 PROCESSING STORAGE OPTIONS
 END OF STORAGE OPTIONS
 PROCESSING GRIDDATA

 OPENED mumodel.sto_iconvert.txt
 FILE TYPE:OPEN/CLOSE   UNIT 1025   STATUS:OLD                 
 FORMAT:FORMATTED              ACCESS:SEQUENTIAL          
 ACTION:READ                


 OPENED mumodel.sto_ss.txt
 FILE TYPE:OPEN/CLOSE   UNIT 1026   STATUS:OLD                 
 FORMAT:FORMATTED              ACCESS:SEQUENTIAL          
 ACTION:READ                


 OPENED mumodel.sto_sy.txt
 FILE TYPE:OPEN/CLOSE   UNIT 1027   STATUS:OLD                 
 FORMAT:FORMATTED              ACCESS:SEQUENTIAL          
 ACTION:READ                

 END PROCESSING GRIDDATA

The observation utility is active for "MUMODEL"
 # File generated by Flopy version 3.5.0 on 04/04/2024 at 11:58:26.

Processing observation options:



 OPENED mumodel.obs_continuous_hds.csv.txt
 FILE TYPE:OPEN/CLOSE   UNIT 1028   STATUS:OLD                 
 FORMAT:FORMATTED              ACCESS:SEQUENTIAL          
 ACTION:READ                

    BINARY GRID INFORMATION WILL BE WRITTEN TO:
      UNIT NUMBER: 1030
      FILE NAME: mumodel.dis.grb

 OPENED mumodel.dis.grb
 FILE TYPE:DATA(BINARY)   UNIT 1030   STATUS:REPLACE             
 FORMAT:UNFORMATTED            ACCESS:STREAM              
 ACTION:READWRITE           

      THE LAST TIME STEP WILL BE PRINTED
      THE LAST TIME STEP WILL BE PRINTED
 # File generated by Flopy version 3.5.0 on 04/04/2024 at 11:58:26.

 PROCESSING OC OPTIONS

    BUDGET INFORMATION WILL BE WRITTEN TO:
      UNIT NUMBER: 1031
      FILE NAME: mumodel_7-2b.cbb

 OPENED mumodel_7-2b.cbb
 FILE TYPE:DATA(BINARY)   UNIT 1031   STATUS:REPLACE             
 FORMAT:UNFORMATTED            ACCESS:STREAM              
 ACTION:READWRITE           

    HEAD INFORMATION WILL BE WRITTEN TO:
      UNIT NUMBER: 1032
      FILE NAME: mumodel_7-2b.hds

 OPENED mumodel_7-2b.hds
 FILE TYPE:DATA(BINARY)   UNIT 1032   STATUS:REPLACE             
 FORMAT:UNFORMATTED            ACCESS:STREAM              
 ACTION:READWRITE           

 END OF OC OPTIONS

start timestep kper="1" kstp="1" mode="normal"


 BEGIN READING OUTPUT CONTROL FOR STRESS PERIOD 1
      ALL TIME STEPS WILL BE SAVED
      ALL TIME STEPS WILL BE SAVED
      ALL TIME STEPS WILL BE PRINTED

 END READING OUTPUT CONTROL FOR STRESS PERIOD 1


 PROCESSING STORAGE PERIOD DATA
 END PROCESSING STORAGE PERIOD DATA


 STRESS PERIOD 1 IS STEADY-STATE

 ---------------------------------------------------
  WEL NO.    LAYER    ROW     COL        IFACE      
 ---------------------------------------------------
     1         1       5       5     0.00000000     
     2         1      11       5     0.00000000     
     3         1       5       5     0.00000000     
 ---------------------------------------------------


 ----------------------------------
  CHD NO.    LAYER    ROW     COL  
 ----------------------------------
     1         1       1       1   
     2         1       1       2   
     3         1       1       3   
     4         1       1       4   
     5         1       1       5   
     6         1       1       6   
     7         1       1       7   
     8         1       1       8   
     9         1       1       9   
     10        1      21       1   
     11        1      21       2   
     12        1      21       3   
     13        1      21       4   
     14        1      21       5   
     15        1      21       6   
     16        1      21       7   
     17        1      21       8   
     18        1      21       9   
 ----------------------------------


 UBDSV1 SAVING     FLOW-JA-FACE ON UNIT   1031 AT TIME STEP      1, STRESS PERIOD      1
 UBDSV06 SAVING              WEL IN MODEL MUMODEL          PACKAGE MUMODEL         CONNECTED TO MODEL MUMODEL          PACKAGE WEL-1            ON UNIT   1031 AT TIME STEP      1, STRESS PERIOD      1
 UBDSV06 SAVING             RCHA IN MODEL MUMODEL          PACKAGE MUMODEL         CONNECTED TO MODEL MUMODEL          PACKAGE RCH-1            ON UNIT   1031 AT TIME STEP      1, STRESS PERIOD      1

 WEL PACKAGE (WEL-1) FLOW RATES   PERIOD      1   STEP        1
 -----------------------------------------------
   NUMBER   CELLID                    RATE      
 -----------------------------------------------
     1      (1,5,5)               0.0000000     
     2      (1,11,5)              0.0000000     
     3      (1,5,5)               0.0000000     
 -----------------------------------------------




 CHD PACKAGE (CHD-FROM-IBOUND) FLOW RATES   PERIOD      1   STEP        1
 -----------------------------------------------
   NUMBER   CELLID                    RATE      
 -----------------------------------------------
     1      (1,1,1)              -2622.0012     
     2      (1,1,2)              -2622.0094     
     3      (1,1,3)              -2622.0069     
     4      (1,1,4)              -2622.0030     
     5      (1,1,5)              -2621.9998     
     6      (1,1,6)              -2621.9972     
     7      (1,1,7)              -2621.9942     
     8      (1,1,8)              -2621.9901     
     9      (1,1,9)              -2621.9858     
     10     (1,21,1)             -2621.9831     
     11     (1,21,2)             -2621.9908     
     12     (1,21,3)             -2621.9966     
     13     (1,21,4)             -2622.0001     
     14     (1,21,5)             -2622.0033     
     15     (1,21,6)             -2622.0078     
     16     (1,21,7)             -2622.0130     
     17     (1,21,8)             -2622.0145     
     18     (1,21,9)             -2621.9993     
 -----------------------------------------------




 HEAD WILL BE SAVED ON UNIT 1032 AT END OF TIME STEP    1, STRESS PERIOD    1


  VOLUME BUDGET FOR ENTIRE MODEL AT END OF TIME STEP    1, STRESS PERIOD   1
  ---------------------------------------------------------------------------------------------------

     CUMULATIVE VOLUME      L**3       RATES FOR THIS TIME STEP      L**3/T          PACKAGE NAME    
     ------------------                 ------------------------                     ----------------

           IN:                                      IN:
           ---                                      ---
              STO-SS =           0.0000                STO-SS =           0.0000     STORAGE                          
              STO-SY =           0.0000                STO-SY =           0.0000     STORAGE                          
                 WEL =           0.0000                   WEL =           0.0000     WEL-1                            
                RCHA =       47196.0000                  RCHA =       47196.0000     RCH-1                            
                 CHD =           0.0000                   CHD =           0.0000     CHD-FROM-IBOUND                  

            TOTAL IN =       47196.0000              TOTAL IN =       47196.0000

          OUT:                                     OUT:
          ----                                     ----
              STO-SS =           0.0000                STO-SS =           0.0000     STORAGE                          
              STO-SY =           0.0000                STO-SY =           0.0000     STORAGE                          
                 WEL =           0.0000                   WEL =           0.0000     WEL-1                            
                RCHA =           0.0000                  RCHA =           0.0000     RCH-1                            
                 CHD =       47195.9961                   CHD =       47195.9961     CHD-FROM-IBOUND                  

           TOTAL OUT =       47195.9961             TOTAL OUT =       47195.9961

            IN - OUT =       3.8547E-03              IN - OUT =       3.8547E-03

 PERCENT DISCREPANCY =           0.00     PERCENT DISCREPANCY =           0.00




         TIME SUMMARY AT END OF TIME STEP    1 IN STRESS PERIOD    1
                    SECONDS     MINUTES      HOURS       DAYS        YEARS
                    -----------------------------------------------------------
   TIME STEP LENGTH  86400.      1440.0      24.000      1.0000     2.73785E-03
 STRESS PERIOD TIME  86400.      1440.0      24.000      1.0000     2.73785E-03
         TOTAL TIME  86400.      1440.0      24.000      1.0000     2.73785E-03


end timestep


start timestep kper="2" kstp="1" mode="normal"


 END OF FILE DETECTED IN OUTPUT CONTROL.
 CURRENT OUTPUT CONTROL SETTINGS WILL BE 
 REPEATED UNTIL THE END OF THE SIMULATION.

 OUTPUT CONTROL FOR STRESS PERIOD 2 IS REPEATED USING SETTINGS FROM A PREVIOUS STRESS PERIOD.


 PROCESSING STORAGE PERIOD DATA
 END PROCESSING STORAGE PERIOD DATA


 STRESS PERIOD 2 IS TRANSIENT

 UBDSV1 SAVING     FLOW-JA-FACE ON UNIT   1031 AT TIME STEP      1, STRESS PERIOD      2
 UBDSV06 SAVING              WEL IN MODEL MUMODEL          PACKAGE MUMODEL         CONNECTED TO MODEL MUMODEL          PACKAGE WEL-1            ON UNIT   1031 AT TIME STEP      1, STRESS PERIOD      2
 UBDSV06 SAVING             RCHA IN MODEL MUMODEL          PACKAGE MUMODEL         CONNECTED TO MODEL MUMODEL          PACKAGE RCH-1            ON UNIT   1031 AT TIME STEP      1, STRESS PERIOD      2

 WEL PACKAGE (WEL-1) FLOW RATES   PERIOD      2   STEP        1
 -----------------------------------------------
   NUMBER   CELLID                    RATE      
 -----------------------------------------------
     1      (1,5,5)               0.0000000     
     2      (1,11,5)              0.0000000     
     3      (1,5,5)               0.0000000     
 -----------------------------------------------




 CHD PACKAGE (CHD-FROM-IBOUND) FLOW RATES   PERIOD      2   STEP        1
 -----------------------------------------------
   NUMBER   CELLID                    RATE      
 -----------------------------------------------
     1      (1,1,1)              -2621.9129     
     2      (1,1,2)              -2621.9212     
     3      (1,1,3)              -2621.9189     
     4      (1,1,4)              -2621.9152     
     5      (1,1,5)              -2621.9120     
     6      (1,1,6)              -2621.9095     
     7      (1,1,7)              -2621.9065     
     8      (1,1,8)              -2621.9025     
     9      (1,1,9)              -2621.8983     
     10     (1,21,1)             -2621.8957     
     11     (1,21,2)             -2621.9032     
     12     (1,21,3)             -2621.9088     
     13     (1,21,4)             -2621.9122     
     14     (1,21,5)             -2621.9156     
     15     (1,21,6)             -2621.9201     
     16     (1,21,7)             -2621.9252     
     17     (1,21,8)             -2621.9266     
     18     (1,21,9)             -2621.9115     
 -----------------------------------------------




 HEAD WILL BE SAVED ON UNIT 1032 AT END OF TIME STEP    1, STRESS PERIOD    2


  VOLUME BUDGET FOR ENTIRE MODEL AT END OF TIME STEP    1, STRESS PERIOD   2
  ---------------------------------------------------------------------------------------------------

     CUMULATIVE VOLUME      L**3       RATES FOR THIS TIME STEP      L**3/T          PACKAGE NAME    
     ------------------                 ------------------------                     ----------------

           IN:                                      IN:
           ---                                      ---
              STO-SS =        8059.0204                STO-SS =        4289.2407     STORAGE                          
              STO-SY =         291.5480                STO-SY =         155.1701     STORAGE                          
                 WEL =           0.0000                   WEL =           0.0000     WEL-1                            
                RCHA =      127518.6370                  RCHA =       42750.0000     RCH-1                            
                 CHD =           0.0000                   CHD =           0.0000     CHD-FROM-IBOUND                  

            TOTAL IN =      135869.2054              TOTAL IN =       47194.4108

          OUT:                                     OUT:
          ----                                     ----
              STO-SS =           0.0000                STO-SS =           0.0000     STORAGE                          
              STO-SY =           0.0000                STO-SY =           0.0000     STORAGE                          
                 WEL =           0.0000                   WEL =           0.0000     WEL-1                            
                RCHA =           0.0000                  RCHA =           0.0000     RCH-1                            
                 CHD =      135869.2118                   CHD =       47194.4163     CHD-FROM-IBOUND                  

           TOTAL OUT =      135869.2118             TOTAL OUT =       47194.4163

            IN - OUT =      -6.3538E-03              IN - OUT =      -5.4333E-03

 PERCENT DISCREPANCY =          -0.00     PERCENT DISCREPANCY =          -0.00




         TIME SUMMARY AT END OF TIME STEP    1 IN STRESS PERIOD    2
                    SECONDS     MINUTES      HOURS       DAYS        YEARS
                    -----------------------------------------------------------
   TIME STEP LENGTH 1.62336E+05  2705.6      45.093      1.8789     5.14413E-03
 STRESS PERIOD TIME 1.62336E+05  2705.6      45.093      1.8789     5.14413E-03
         TOTAL TIME 2.48736E+05  4145.6      69.093      2.8789     7.88198E-03


end timestep


start timestep kper="2" kstp="2" mode="normal"

 UBDSV1 SAVING     FLOW-JA-FACE ON UNIT   1031 AT TIME STEP      2, STRESS PERIOD      2
 UBDSV06 SAVING              WEL IN MODEL MUMODEL          PACKAGE MUMODEL         CONNECTED TO MODEL MUMODEL          PACKAGE WEL-1            ON UNIT   1031 AT TIME STEP      2, STRESS PERIOD      2
 UBDSV06 SAVING             RCHA IN MODEL MUMODEL          PACKAGE MUMODEL         CONNECTED TO MODEL MUMODEL          PACKAGE RCH-1            ON UNIT   1031 AT TIME STEP      2, STRESS PERIOD      2

 WEL PACKAGE (WEL-1) FLOW RATES   PERIOD      2   STEP        2
 -----------------------------------------------
   NUMBER   CELLID                    RATE      
 -----------------------------------------------
     1      (1,5,5)               0.0000000     
     2      (1,11,5)              0.0000000     
     3      (1,5,5)               0.0000000     
 -----------------------------------------------




 CHD PACKAGE (CHD-FROM-IBOUND) FLOW RATES   PERIOD      2   STEP        2
 -----------------------------------------------
   NUMBER   CELLID                    RATE      
 -----------------------------------------------
     1      (1,1,1)              -2621.8035     
     2      (1,1,2)              -2621.8117     
     3      (1,1,3)              -2621.8095     
     4      (1,1,4)              -2621.8057     
     5      (1,1,5)              -2621.8026     
     6      (1,1,6)              -2621.8000     
     7      (1,1,7)              -2621.7971     
     8      (1,1,8)              -2621.7931     
     9      (1,1,9)              -2621.7889     
     10     (1,21,1)             -2621.7864     
     11     (1,21,2)             -2621.7938     
     12     (1,21,3)             -2621.7994     
     13     (1,21,4)             -2621.8028     
     14     (1,21,5)             -2621.8062     
     15     (1,21,6)             -2621.8107     
     16     (1,21,7)             -2621.8157     
     17     (1,21,8)             -2621.8170     
     18     (1,21,9)             -2621.8021     
 -----------------------------------------------




 HEAD WILL BE SAVED ON UNIT 1032 AT END OF TIME STEP    2, STRESS PERIOD    2


  VOLUME BUDGET FOR ENTIRE MODEL AT END OF TIME STEP    2, STRESS PERIOD   2
  ---------------------------------------------------------------------------------------------------

     CUMULATIVE VOLUME      L**3       RATES FOR THIS TIME STEP      L**3/T          PACKAGE NAME    
     ------------------                 ------------------------                     ----------------

           IN:                                      IN:
           ---                                      ---
              STO-SS =       17725.5896                STO-SS =        4287.3534     STORAGE                          
              STO-SY =         641.2170                STO-SY =         155.0865     STORAGE                          
                 WEL =           0.0000                   WEL =           0.0000     WEL-1                            
                RCHA =      223905.8015                  RCHA =       42750.0000     RCH-1                            
                 CHD =           0.0000                   CHD =           0.0000     CHD-FROM-IBOUND                  

            TOTAL IN =      242272.6081              TOTAL IN =       47192.4399

          OUT:                                     OUT:
          ----                                     ----
              STO-SS =           0.0000                STO-SS =           0.0000     STORAGE                          
              STO-SY =           0.0000                STO-SY =           0.0000     STORAGE                          
                 WEL =           0.0000                   WEL =           0.0000     WEL-1                            
                RCHA =           0.0000                  RCHA =           0.0000     RCH-1                            
                 CHD =      242272.6292                   CHD =       47192.4464     CHD-FROM-IBOUND                  

           TOTAL OUT =      242272.6292             TOTAL OUT =       47192.4464

            IN - OUT =      -2.1081E-02              IN - OUT =      -6.5319E-03

 PERCENT DISCREPANCY =          -0.00     PERCENT DISCREPANCY =          -0.00




         TIME SUMMARY AT END OF TIME STEP    2 IN STRESS PERIOD    2
                    SECONDS     MINUTES      HOURS       DAYS        YEARS
                    -----------------------------------------------------------
   TIME STEP LENGTH 1.94804E+05  3246.7      54.112      2.2547     6.17295E-03
 STRESS PERIOD TIME 3.57140E+05  5952.3      99.206      4.1336     1.13171E-02
         TOTAL TIME 4.43540E+05  7392.3      123.21      5.1336     1.40549E-02


end timestep


start timestep kper="2" kstp="3" mode="normal"

 UBDSV1 SAVING     FLOW-JA-FACE ON UNIT   1031 AT TIME STEP      3, STRESS PERIOD      2
 UBDSV06 SAVING              WEL IN MODEL MUMODEL          PACKAGE MUMODEL         CONNECTED TO MODEL MUMODEL          PACKAGE WEL-1            ON UNIT   1031 AT TIME STEP      3, STRESS PERIOD      2
 UBDSV06 SAVING             RCHA IN MODEL MUMODEL          PACKAGE MUMODEL         CONNECTED TO MODEL MUMODEL          PACKAGE RCH-1            ON UNIT   1031 AT TIME STEP      3, STRESS PERIOD      2

 WEL PACKAGE (WEL-1) FLOW RATES   PERIOD      2   STEP        3
 -----------------------------------------------
   NUMBER   CELLID                    RATE      
 -----------------------------------------------
     1      (1,5,5)               0.0000000     
     2      (1,11,5)              0.0000000     
     3      (1,5,5)               0.0000000     
 -----------------------------------------------




 CHD PACKAGE (CHD-FROM-IBOUND) FLOW RATES   PERIOD      2   STEP        3
 -----------------------------------------------
   NUMBER   CELLID                    RATE      
 -----------------------------------------------
     1      (1,1,1)              -2621.6728     
     2      (1,1,2)              -2621.6810     
     3      (1,1,3)              -2621.6788     
     4      (1,1,4)              -2621.6751     
     5      (1,1,5)              -2621.6720     
     6      (1,1,6)              -2621.6694     
     7      (1,1,7)              -2621.6665     
     8      (1,1,8)              -2621.6625     
     9      (1,1,9)              -2621.6583     
     10     (1,21,1)             -2621.6558     
     11     (1,21,2)             -2621.6632     
     12     (1,21,3)             -2621.6688     
     13     (1,21,4)             -2621.6722     
     14     (1,21,5)             -2621.6755     
     15     (1,21,6)             -2621.6800     
     16     (1,21,7)             -2621.6850     
     17     (1,21,8)             -2621.6862     
     18     (1,21,9)             -2621.6715     
 -----------------------------------------------




 HEAD WILL BE SAVED ON UNIT 1032 AT END OF TIME STEP    3, STRESS PERIOD    2


  VOLUME BUDGET FOR ENTIRE MODEL AT END OF TIME STEP    3, STRESS PERIOD   2
  ---------------------------------------------------------------------------------------------------

     CUMULATIVE VOLUME      L**3       RATES FOR THIS TIME STEP      L**3/T          PACKAGE NAME    
     ------------------                 ------------------------                     ----------------

           IN:                                      IN:
           ---                                      ---
              STO-SS =       29319.3761                STO-SS =        4285.1000     STORAGE                          
              STO-SY =        1060.5497                STO-SY =         154.9867     STORAGE                          
                 WEL =           0.0000                   WEL =           0.0000     WEL-1                            
                RCHA =      339570.3989                  RCHA =       42750.0000     RCH-1                            
                 CHD =           0.0000                   CHD =           0.0000     CHD-FROM-IBOUND                  

            TOTAL IN =      369950.3247              TOTAL IN =       47190.0868

          OUT:                                     OUT:
          ----                                     ----
              STO-SS =           0.0000                STO-SS =           0.0000     STORAGE                          
              STO-SY =           0.0000                STO-SY =           0.0000     STORAGE                          
                 WEL =           0.0000                   WEL =           0.0000     WEL-1                            
                RCHA =           0.0000                  RCHA =           0.0000     RCH-1                            
                 CHD =      369950.3665                   CHD =       47190.0944     CHD-FROM-IBOUND                  

           TOTAL OUT =      369950.3665             TOTAL OUT =       47190.0944

            IN - OUT =      -4.1853E-02              IN - OUT =      -7.6773E-03

 PERCENT DISCREPANCY =          -0.00     PERCENT DISCREPANCY =          -0.00




         TIME SUMMARY AT END OF TIME STEP    3 IN STRESS PERIOD    2
                    SECONDS     MINUTES      HOURS       DAYS        YEARS
                    -----------------------------------------------------------
   TIME STEP LENGTH 2.33764E+05  3896.1      64.935      2.7056     7.40754E-03
 STRESS PERIOD TIME 5.90904E+05  9848.4      164.14      6.8392     1.87246E-02
         TOTAL TIME 6.77304E+05  11288.      188.14      7.8392     2.14625E-02


end timestep


start timestep kper="2" kstp="4" mode="normal"

 UBDSV1 SAVING     FLOW-JA-FACE ON UNIT   1031 AT TIME STEP      4, STRESS PERIOD      2
 UBDSV06 SAVING              WEL IN MODEL MUMODEL          PACKAGE MUMODEL         CONNECTED TO MODEL MUMODEL          PACKAGE WEL-1            ON UNIT   1031 AT TIME STEP      4, STRESS PERIOD      2
 UBDSV06 SAVING             RCHA IN MODEL MUMODEL          PACKAGE MUMODEL         CONNECTED TO MODEL MUMODEL          PACKAGE RCH-1            ON UNIT   1031 AT TIME STEP      4, STRESS PERIOD      2

 WEL PACKAGE (WEL-1) FLOW RATES   PERIOD      2   STEP        4
 -----------------------------------------------
   NUMBER   CELLID                    RATE      
 -----------------------------------------------
     1      (1,5,5)               0.0000000     
     2      (1,11,5)              0.0000000     
     3      (1,5,5)               0.0000000     
 -----------------------------------------------




 CHD PACKAGE (CHD-FROM-IBOUND) FLOW RATES   PERIOD      2   STEP        4
 -----------------------------------------------
   NUMBER   CELLID                    RATE      
 -----------------------------------------------
     1      (1,1,1)              -2621.5170     
     2      (1,1,2)              -2621.5250     
     3      (1,1,3)              -2621.5229     
     4      (1,1,4)              -2621.5192     
     5      (1,1,5)              -2621.5161     
     6      (1,1,6)              -2621.5136     
     7      (1,1,7)              -2621.5106     
     8      (1,1,8)              -2621.5067     
     9      (1,1,9)              -2621.5025     
     10     (1,21,1)             -2621.5001     
     11     (1,21,2)             -2621.5075     
     12     (1,21,3)             -2621.5130     
     13     (1,21,4)             -2621.5163     
     14     (1,21,5)             -2621.5196     
     15     (1,21,6)             -2621.5241     
     16     (1,21,7)             -2621.5290     
     17     (1,21,8)             -2621.5301     
     18     (1,21,9)             -2621.5156     
 -----------------------------------------------




 HEAD WILL BE SAVED ON UNIT 1032 AT END OF TIME STEP    4, STRESS PERIOD    2


  VOLUME BUDGET FOR ENTIRE MODEL AT END OF TIME STEP    4, STRESS PERIOD   2
  ---------------------------------------------------------------------------------------------------

     CUMULATIVE VOLUME      L**3       RATES FOR THIS TIME STEP      L**3/T          PACKAGE NAME    
     ------------------                 ------------------------                     ----------------

           IN:                                      IN:
           ---                                      ---
              STO-SS =       43223.1926                STO-SS =        4282.4120     STORAGE                          
              STO-SY =        1563.3627                STO-SY =         154.8677     STORAGE                          
                 WEL =           0.0000                   WEL =           0.0000     WEL-1                            
                RCHA =      478367.9157                  RCHA =       42750.0000     RCH-1                            
                 CHD =           0.0000                   CHD =           0.0000     CHD-FROM-IBOUND                  

            TOTAL IN =      523154.4709              TOTAL IN =       47187.2797

          OUT:                                     OUT:
          ----                                     ----
              STO-SS =           0.0000                STO-SS =           0.0000     STORAGE                          
              STO-SY =           0.0000                STO-SY =           0.0000     STORAGE                          
                 WEL =           0.0000                   WEL =           0.0000     WEL-1                            
                RCHA =           0.0000                  RCHA =           0.0000     RCH-1                            
                 CHD =      523154.5426                   CHD =       47187.2889     CHD-FROM-IBOUND                  

           TOTAL OUT =      523154.5426             TOTAL OUT =       47187.2889

            IN - OUT =      -7.1713E-02              IN - OUT =      -9.1970E-03

 PERCENT DISCREPANCY =          -0.00     PERCENT DISCREPANCY =          -0.00




         TIME SUMMARY AT END OF TIME STEP    4 IN STRESS PERIOD    2
                    SECONDS     MINUTES      HOURS       DAYS        YEARS
                    -----------------------------------------------------------
   TIME STEP LENGTH 2.80517E+05  4675.3      77.921      3.2467     8.88905E-03
 STRESS PERIOD TIME 8.71421E+05  14524.      242.06      10.086     2.76137E-02
         TOTAL TIME 9.57821E+05  15964.      266.06      11.086     3.03515E-02


end timestep


start timestep kper="2" kstp="5" mode="normal"

 UBDSV1 SAVING     FLOW-JA-FACE ON UNIT   1031 AT TIME STEP      5, STRESS PERIOD      2
 UBDSV06 SAVING              WEL IN MODEL MUMODEL          PACKAGE MUMODEL         CONNECTED TO MODEL MUMODEL          PACKAGE WEL-1            ON UNIT   1031 AT TIME STEP      5, STRESS PERIOD      2
 UBDSV06 SAVING             RCHA IN MODEL MUMODEL          PACKAGE MUMODEL         CONNECTED TO MODEL MUMODEL          PACKAGE RCH-1            ON UNIT   1031 AT TIME STEP      5, STRESS PERIOD      2

 WEL PACKAGE (WEL-1) FLOW RATES   PERIOD      2   STEP        5
 -----------------------------------------------
   NUMBER   CELLID                    RATE      
 -----------------------------------------------
     1      (1,5,5)               0.0000000     
     2      (1,11,5)              0.0000000     
     3      (1,5,5)               0.0000000     
 -----------------------------------------------




 CHD PACKAGE (CHD-FROM-IBOUND) FLOW RATES   PERIOD      2   STEP        5
 -----------------------------------------------
   NUMBER   CELLID                    RATE      
 -----------------------------------------------
     1      (1,1,1)              -2621.3313     
     2      (1,1,2)              -2621.3392     
     3      (1,1,3)              -2621.3372     
     4      (1,1,4)              -2621.3335     
     5      (1,1,5)              -2621.3304     
     6      (1,1,6)              -2621.3279     
     7      (1,1,7)              -2621.3250     
     8      (1,1,8)              -2621.3210     
     9      (1,1,9)              -2621.3169     
     10     (1,21,1)             -2621.3145     
     11     (1,21,2)             -2621.3219     
     12     (1,21,3)             -2621.3273     
     13     (1,21,4)             -2621.3306     
     14     (1,21,5)             -2621.3339     
     15     (1,21,6)             -2621.3383     
     16     (1,21,7)             -2621.3432     
     17     (1,21,8)             -2621.3442     
     18     (1,21,9)             -2621.3299     
 -----------------------------------------------




 HEAD WILL BE SAVED ON UNIT 1032 AT END OF TIME STEP    5, STRESS PERIOD    2


  VOLUME BUDGET FOR ENTIRE MODEL AT END OF TIME STEP    5, STRESS PERIOD   2
  ---------------------------------------------------------------------------------------------------

     CUMULATIVE VOLUME      L**3       RATES FOR THIS TIME STEP      L**3/T          PACKAGE NAME    
     ------------------                 ------------------------                     ----------------

           IN:                                      IN:
           ---                                      ---
              STO-SS =       59895.2941                STO-SS =        4279.2092     STORAGE                          
              STO-SY =        2166.1861                STO-SY =         154.7260     STORAGE                          
                 WEL =           0.0000                   WEL =           0.0000     WEL-1                            
                RCHA =      644924.9358                  RCHA =       42750.0000     RCH-1                            
                 CHD =           0.0000                   CHD =           0.0000     CHD-FROM-IBOUND                  

            TOTAL IN =      706986.4161              TOTAL IN =       47183.9353

          OUT:                                     OUT:
          ----                                     ----
              STO-SS =           0.0000                STO-SS =           0.0000     STORAGE                          
              STO-SY =           0.0000                STO-SY =           0.0000     STORAGE                          
                 WEL =           0.0000                   WEL =           0.0000     WEL-1                            
                RCHA =           0.0000                  RCHA =           0.0000     RCH-1                            
                 CHD =      706986.5307                   CHD =       47183.9463     CHD-FROM-IBOUND                  

           TOTAL OUT =      706986.5307             TOTAL OUT =       47183.9463

            IN - OUT =          -0.1146              IN - OUT =      -1.1010E-02

 PERCENT DISCREPANCY =          -0.00     PERCENT DISCREPANCY =          -0.00




         TIME SUMMARY AT END OF TIME STEP    5 IN STRESS PERIOD    2
                    SECONDS     MINUTES      HOURS       DAYS        YEARS
                    -----------------------------------------------------------
   TIME STEP LENGTH 3.36621E+05  5610.3      93.506      3.8961     1.06669E-02
 STRESS PERIOD TIME 1.20804E+06  20134.      335.57      13.982     3.82805E-02
         TOTAL TIME 1.29444E+06  21574.      359.57      14.982     4.10184E-02


end timestep


start timestep kper="2" kstp="6" mode="normal"

 UBDSV1 SAVING     FLOW-JA-FACE ON UNIT   1031 AT TIME STEP      6, STRESS PERIOD      2
 UBDSV06 SAVING              WEL IN MODEL MUMODEL          PACKAGE MUMODEL         CONNECTED TO MODEL MUMODEL          PACKAGE WEL-1            ON UNIT   1031 AT TIME STEP      6, STRESS PERIOD      2
 UBDSV06 SAVING             RCHA IN MODEL MUMODEL          PACKAGE MUMODEL         CONNECTED TO MODEL MUMODEL          PACKAGE RCH-1            ON UNIT   1031 AT TIME STEP      6, STRESS PERIOD      2

 WEL PACKAGE (WEL-1) FLOW RATES   PERIOD      2   STEP        6
 -----------------------------------------------
   NUMBER   CELLID                    RATE      
 -----------------------------------------------
     1      (1,5,5)               0.0000000     
     2      (1,11,5)              0.0000000     
     3      (1,5,5)               0.0000000     
 -----------------------------------------------




 CHD PACKAGE (CHD-FROM-IBOUND) FLOW RATES   PERIOD      2   STEP        6
 -----------------------------------------------
   NUMBER   CELLID                    RATE      
 -----------------------------------------------
     1      (1,1,1)              -2621.1103     
     2      (1,1,2)              -2621.1181     
     3      (1,1,3)              -2621.1161     
     4      (1,1,4)              -2621.1125     
     5      (1,1,5)              -2621.1095     
     6      (1,1,6)              -2621.1069     
     7      (1,1,7)              -2621.1041     
     8      (1,1,8)              -2621.1001     
     9      (1,1,9)              -2621.0960     
     10     (1,21,1)             -2621.0938     
     11     (1,21,2)             -2621.1010     
     12     (1,21,3)             -2621.1064     
     13     (1,21,4)             -2621.1097     
     14     (1,21,5)             -2621.1130     
     15     (1,21,6)             -2621.1173     
     16     (1,21,7)             -2621.1221     
     17     (1,21,8)             -2621.1230     
     18     (1,21,9)             -2621.1090     
 -----------------------------------------------




 HEAD WILL BE SAVED ON UNIT 1032 AT END OF TIME STEP    6, STRESS PERIOD    2


  VOLUME BUDGET FOR ENTIRE MODEL AT END OF TIME STEP    6, STRESS PERIOD   2
  ---------------------------------------------------------------------------------------------------

     CUMULATIVE VOLUME      L**3       RATES FOR THIS TIME STEP      L**3/T          PACKAGE NAME    
     ------------------                 ------------------------                     ----------------

           IN:                                      IN:
           ---                                      ---
              STO-SS =       79883.9985                STO-SS =        4275.3982     STORAGE                          
              STO-SY =        2888.7867                STO-SY =         154.5575     STORAGE                          
                 WEL =           0.0000                   WEL =           0.0000     WEL-1                            
                RCHA =      844793.3601                  RCHA =       42750.0000     RCH-1                            
                 CHD =           0.0000                   CHD =           0.0000     CHD-FROM-IBOUND                  

            TOTAL IN =      927566.1452              TOTAL IN =       47179.9558

          OUT:                                     OUT:
          ----                                     ----
              STO-SS =           0.0000                STO-SS =           0.0000     STORAGE                          
              STO-SY =           0.0000                STO-SY =           0.0000     STORAGE                          
                 WEL =           0.0000                   WEL =           0.0000     WEL-1                            
                RCHA =           0.0000                  RCHA =           0.0000     RCH-1                            
                 CHD =      927566.3214                   CHD =       47179.9690     CHD-FROM-IBOUND                  

           TOTAL OUT =      927566.3214             TOTAL OUT =       47179.9690

            IN - OUT =          -0.1762              IN - OUT =      -1.3178E-02

 PERCENT DISCREPANCY =          -0.00     PERCENT DISCREPANCY =          -0.00




         TIME SUMMARY AT END OF TIME STEP    6 IN STRESS PERIOD    2
                    SECONDS     MINUTES      HOURS       DAYS        YEARS
                    -----------------------------------------------------------
   TIME STEP LENGTH 4.03945E+05  6732.4      112.21      4.6753     1.28002E-02
 STRESS PERIOD TIME 1.61199E+06  26866.      447.77      18.657     5.10808E-02
         TOTAL TIME 1.69839E+06  28306.      471.77      19.657     5.38186E-02


end timestep


start timestep kper="2" kstp="7" mode="normal"

 UBDSV1 SAVING     FLOW-JA-FACE ON UNIT   1031 AT TIME STEP      7, STRESS PERIOD      2
 UBDSV06 SAVING              WEL IN MODEL MUMODEL          PACKAGE MUMODEL         CONNECTED TO MODEL MUMODEL          PACKAGE WEL-1            ON UNIT   1031 AT TIME STEP      7, STRESS PERIOD      2
 UBDSV06 SAVING             RCHA IN MODEL MUMODEL          PACKAGE MUMODEL         CONNECTED TO MODEL MUMODEL          PACKAGE RCH-1            ON UNIT   1031 AT TIME STEP      7, STRESS PERIOD      2

 WEL PACKAGE (WEL-1) FLOW RATES   PERIOD      2   STEP        7
 -----------------------------------------------
   NUMBER   CELLID                    RATE      
 -----------------------------------------------
     1      (1,5,5)               0.0000000     
     2      (1,11,5)              0.0000000     
     3      (1,5,5)               0.0000000     
 -----------------------------------------------




 CHD PACKAGE (CHD-FROM-IBOUND) FLOW RATES   PERIOD      2   STEP        7
 -----------------------------------------------
   NUMBER   CELLID                    RATE      
 -----------------------------------------------
     1      (1,1,1)              -2620.8479     
     2      (1,1,2)              -2620.8554     
     3      (1,1,3)              -2620.8536     
     4      (1,1,4)              -2620.8500     
     5      (1,1,5)              -2620.8470     
     6      (1,1,6)              -2620.8445     
     7      (1,1,7)              -2620.8416     
     8      (1,1,8)              -2620.8377     
     9      (1,1,9)              -2620.8336     
     10     (1,21,1)             -2620.8315     
     11     (1,21,2)             -2620.8386     
     12     (1,21,3)             -2620.8440     
     13     (1,21,4)             -2620.8472     
     14     (1,21,5)             -2620.8505     
     15     (1,21,6)             -2620.8548     
     16     (1,21,7)             -2620.8595     
     17     (1,21,8)             -2620.8601     
     18     (1,21,9)             -2620.8465     
 -----------------------------------------------




 HEAD WILL BE SAVED ON UNIT 1032 AT END OF TIME STEP    7, STRESS PERIOD    2


  VOLUME BUDGET FOR ENTIRE MODEL AT END OF TIME STEP    7, STRESS PERIOD   2
  ---------------------------------------------------------------------------------------------------

     CUMULATIVE VOLUME      L**3       RATES FOR THIS TIME STEP      L**3/T          PACKAGE NAME    
     ------------------                 ------------------------                     ----------------

           IN:                                      IN:
           ---                                      ---
              STO-SS =      103845.0425                STO-SS =        4270.8707     STORAGE                          
              STO-SY =        3754.7853                STO-SY =         154.3576     STORAGE                          
                 WEL =           0.0000                   WEL =           0.0000     WEL-1                            
                RCHA =     1084635.4691                  RCHA =       42750.0000     RCH-1                            
                 CHD =           0.0000                   CHD =           0.0000     CHD-FROM-IBOUND                  

            TOTAL IN =     1192235.2970              TOTAL IN =       47175.2282

          OUT:                                     OUT:
          ----                                     ----
              STO-SS =           0.0000                STO-SS =           0.0000     STORAGE                          
              STO-SY =           0.0000                STO-SY =           0.0000     STORAGE                          
                 WEL =           0.0000                   WEL =           0.0000     WEL-1                            
                RCHA =           0.0000                  RCHA =           0.0000     RCH-1                            
                 CHD =     1192235.5616                   CHD =       47175.2440     CHD-FROM-IBOUND                  

           TOTAL OUT =     1192235.5616             TOTAL OUT =       47175.2440

            IN - OUT =          -0.2647              IN - OUT =      -1.5766E-02

 PERCENT DISCREPANCY =          -0.00     PERCENT DISCREPANCY =          -0.00




         TIME SUMMARY AT END OF TIME STEP    7 IN STRESS PERIOD    2
                    SECONDS     MINUTES      HOURS       DAYS        YEARS
                    -----------------------------------------------------------
   TIME STEP LENGTH 4.84734E+05  8078.9      134.65      5.6103     1.53603E-02
 STRESS PERIOD TIME 2.09672E+06  34945.      582.42      24.268     6.64410E-02
         TOTAL TIME 2.18312E+06  36385.      606.42      25.268     6.91789E-02


end timestep


start timestep kper="2" kstp="8" mode="normal"

 UBDSV1 SAVING     FLOW-JA-FACE ON UNIT   1031 AT TIME STEP      8, STRESS PERIOD      2
 UBDSV06 SAVING              WEL IN MODEL MUMODEL          PACKAGE MUMODEL         CONNECTED TO MODEL MUMODEL          PACKAGE WEL-1            ON UNIT   1031 AT TIME STEP      8, STRESS PERIOD      2
 UBDSV06 SAVING             RCHA IN MODEL MUMODEL          PACKAGE MUMODEL         CONNECTED TO MODEL MUMODEL          PACKAGE RCH-1            ON UNIT   1031 AT TIME STEP      8, STRESS PERIOD      2

 WEL PACKAGE (WEL-1) FLOW RATES   PERIOD      2   STEP        8
 -----------------------------------------------
   NUMBER   CELLID                    RATE      
 -----------------------------------------------
     1      (1,5,5)               0.0000000     
     2      (1,11,5)              0.0000000     
     3      (1,5,5)               0.0000000     
 -----------------------------------------------




 CHD PACKAGE (CHD-FROM-IBOUND) FLOW RATES   PERIOD      2   STEP        8
 -----------------------------------------------
   NUMBER   CELLID                    RATE      
 -----------------------------------------------
     1      (1,1,1)              -2620.5366     
     2      (1,1,2)              -2620.5439     
     3      (1,1,3)              -2620.5423     
     4      (1,1,4)              -2620.5388     
     5      (1,1,5)              -2620.5358     
     6      (1,1,6)              -2620.5333     
     7      (1,1,7)              -2620.5304     
     8      (1,1,8)              -2620.5265     
     9      (1,1,9)              -2620.5225     
     10     (1,21,1)             -2620.5205     
     11     (1,21,2)             -2620.5275     
     12     (1,21,3)             -2620.5328     
     13     (1,21,4)             -2620.5360     
     14     (1,21,5)             -2620.5392     
     15     (1,21,6)             -2620.5435     
     16     (1,21,7)             -2620.5480     
     17     (1,21,8)             -2620.5485     
     18     (1,21,9)             -2620.5353     
 -----------------------------------------------




 HEAD WILL BE SAVED ON UNIT 1032 AT END OF TIME STEP    8, STRESS PERIOD    2


  VOLUME BUDGET FOR ENTIRE MODEL AT END OF TIME STEP    8, STRESS PERIOD   2
  ---------------------------------------------------------------------------------------------------

     CUMULATIVE VOLUME      L**3       RATES FOR THIS TIME STEP      L**3/T          PACKAGE NAME    
     ------------------                 ------------------------                     ----------------

           IN:                                      IN:
           ---                                      ---
              STO-SS =      132562.1493                STO-SS =        4265.5017     STORAGE                          
              STO-SY =        4792.3889                STO-SY =         154.1207     STORAGE                          
                 WEL =           0.0000                   WEL =           0.0000     WEL-1                            
                RCHA =     1372446.0000                  RCHA =       42750.0000     RCH-1                            
                 CHD =           0.0000                   CHD =           0.0000     CHD-FROM-IBOUND                  

            TOTAL IN =     1509800.5382              TOTAL IN =       47169.6224

          OUT:                                     OUT:
          ----                                     ----
              STO-SS =           0.0000                STO-SS =           0.0000     STORAGE                          
              STO-SY =           0.0000                STO-SY =           0.0000     STORAGE                          
                 WEL =           0.0000                   WEL =           0.0000     WEL-1                            
                RCHA =           0.0000                  RCHA =           0.0000     RCH-1                            
                 CHD =     1509800.9298                   CHD =       47169.6413     CHD-FROM-IBOUND                  

           TOTAL OUT =     1509800.9298             TOTAL OUT =       47169.6413

            IN - OUT =          -0.3916              IN - OUT =      -1.8851E-02

 PERCENT DISCREPANCY =          -0.00     PERCENT DISCREPANCY =          -0.00




         TIME SUMMARY AT END OF TIME STEP    8 IN STRESS PERIOD    2
                    SECONDS     MINUTES      HOURS       DAYS        YEARS
                    -----------------------------------------------------------
   TIME STEP LENGTH 5.81680E+05  9694.7      161.58      6.7324     1.84323E-02
 STRESS PERIOD TIME 2.67840E+06  44640.      744.00      31.000     8.48734E-02
         TOTAL TIME 2.76480E+06  46080.      768.00      32.000     8.76112E-02


end timestep


start timestep kper="3" kstp="1" mode="normal"


 OUTPUT CONTROL FOR STRESS PERIOD 3 IS REPEATED USING SETTINGS FROM A PREVIOUS STRESS PERIOD.


 STRESS PERIOD 3 IS TRANSIENT

 UBDSV1 SAVING     FLOW-JA-FACE ON UNIT   1031 AT TIME STEP      1, STRESS PERIOD      3
 UBDSV06 SAVING              WEL IN MODEL MUMODEL          PACKAGE MUMODEL         CONNECTED TO MODEL MUMODEL          PACKAGE WEL-1            ON UNIT   1031 AT TIME STEP      1, STRESS PERIOD      3
 UBDSV06 SAVING             RCHA IN MODEL MUMODEL          PACKAGE MUMODEL         CONNECTED TO MODEL MUMODEL          PACKAGE RCH-1            ON UNIT   1031 AT TIME STEP      1, STRESS PERIOD      3

 WEL PACKAGE (WEL-1) FLOW RATES   PERIOD      3   STEP        1
 -----------------------------------------------
   NUMBER   CELLID                    RATE      
 -----------------------------------------------
     1      (1,5,5)               0.0000000     
     2      (1,11,5)              0.0000000     
     3      (1,5,5)               0.0000000     
 -----------------------------------------------




 CHD PACKAGE (CHD-FROM-IBOUND) FLOW RATES   PERIOD      3   STEP        1
 -----------------------------------------------
   NUMBER   CELLID                    RATE      
 -----------------------------------------------
     1      (1,1,1)              -2622.0466     
     2      (1,1,2)              -2622.0538     
     3      (1,1,3)              -2622.0522     
     4      (1,1,4)              -2622.0487     
     5      (1,1,5)              -2622.0457     
     6      (1,1,6)              -2622.0432     
     7      (1,1,7)              -2622.0404     
     8      (1,1,8)              -2622.0365     
     9      (1,1,9)              -2622.0324     
     10     (1,21,1)             -2622.0305     
     11     (1,21,2)             -2622.0375     
     12     (1,21,3)             -2622.0427     
     13     (1,21,4)             -2622.0460     
     14     (1,21,5)             -2622.0491     
     15     (1,21,6)             -2622.0534     
     16     (1,21,7)             -2622.0579     
     17     (1,21,8)             -2622.0583     
     18     (1,21,9)             -2622.0452     
 -----------------------------------------------




 HEAD WILL BE SAVED ON UNIT 1032 AT END OF TIME STEP    1, STRESS PERIOD    3


  VOLUME BUDGET FOR ENTIRE MODEL AT END OF TIME STEP    1, STRESS PERIOD   3
  ---------------------------------------------------------------------------------------------------

     CUMULATIVE VOLUME      L**3       RATES FOR THIS TIME STEP      L**3/T          PACKAGE NAME    
     ------------------                 ------------------------                     ----------------

           IN:                                      IN:
           ---                                      ---
              STO-SS =      132562.1493                STO-SS =           0.0000     STORAGE                          
              STO-SY =        4792.3889                STO-SY =           0.0000     STORAGE                          
                 WEL =           0.0000                   WEL =           0.0000     WEL-1                            
                RCHA =     1590094.4359                  RCHA =      128250.0000     RCH-1                            
                 CHD =           0.0000                   CHD =           0.0000     CHD-FROM-IBOUND                  

            TOTAL IN =     1727448.9741              TOTAL IN =      128250.0000

          OUT:                                     OUT:
          ----                                     ----
              STO-SS =      132749.4832                STO-SS =       78223.0350     STORAGE                          
              STO-SY =        4802.9363                STO-SY =        2830.1448     STORAGE                          
                 WEL =           0.0000                   WEL =           0.0000     WEL-1                            
                RCHA =           0.0000                  RCHA =           0.0000     RCH-1                            
                 CHD =     1589896.9462                   CHD =       47196.8203     CHD-FROM-IBOUND                  

           TOTAL OUT =     1727449.3657             TOTAL OUT =      128250.0000

            IN - OUT =          -0.3916              IN - OUT =      -3.0046E-05

 PERCENT DISCREPANCY =          -0.00     PERCENT DISCREPANCY =          -0.00




         TIME SUMMARY AT END OF TIME STEP    1 IN STRESS PERIOD    3
                    SECONDS     MINUTES      HOURS       DAYS        YEARS
                    -----------------------------------------------------------
   TIME STEP LENGTH 1.46626E+05  2443.8      40.730      1.6971     4.64631E-03
 STRESS PERIOD TIME 1.46626E+05  2443.8      40.730      1.6971     4.64631E-03
         TOTAL TIME 2.91143E+06  48524.      808.73      33.697     9.22575E-02


end timestep


start timestep kper="3" kstp="2" mode="normal"

 UBDSV1 SAVING     FLOW-JA-FACE ON UNIT   1031 AT TIME STEP      2, STRESS PERIOD      3
 UBDSV06 SAVING              WEL IN MODEL MUMODEL          PACKAGE MUMODEL         CONNECTED TO MODEL MUMODEL          PACKAGE WEL-1            ON UNIT   1031 AT TIME STEP      2, STRESS PERIOD      3
 UBDSV06 SAVING             RCHA IN MODEL MUMODEL          PACKAGE MUMODEL         CONNECTED TO MODEL MUMODEL          PACKAGE RCH-1            ON UNIT   1031 AT TIME STEP      2, STRESS PERIOD      3

 WEL PACKAGE (WEL-1) FLOW RATES   PERIOD      3   STEP        2
 -----------------------------------------------
   NUMBER   CELLID                    RATE      
 -----------------------------------------------
     1      (1,5,5)               0.0000000     
     2      (1,11,5)              0.0000000     
     3      (1,5,5)               0.0000000     
 -----------------------------------------------




 CHD PACKAGE (CHD-FROM-IBOUND) FLOW RATES   PERIOD      3   STEP        2
 -----------------------------------------------
   NUMBER   CELLID                    RATE      
 -----------------------------------------------
     1      (1,1,1)              -2623.8701     
     2      (1,1,2)              -2623.8773     
     3      (1,1,3)              -2623.8757     
     4      (1,1,4)              -2623.8722     
     5      (1,1,5)              -2623.8692     
     6      (1,1,6)              -2623.8667     
     7      (1,1,7)              -2623.8639     
     8      (1,1,8)              -2623.8600     
     9      (1,1,9)              -2623.8560     
     10     (1,21,1)             -2623.8541     
     11     (1,21,2)             -2623.8610     
     12     (1,21,3)             -2623.8663     
     13     (1,21,4)             -2623.8695     
     14     (1,21,5)             -2623.8726     
     15     (1,21,6)             -2623.8769     
     16     (1,21,7)             -2623.8814     
     17     (1,21,8)             -2623.8817     
     18     (1,21,9)             -2623.8687     
 -----------------------------------------------




 HEAD WILL BE SAVED ON UNIT 1032 AT END OF TIME STEP    2, STRESS PERIOD    3


  VOLUME BUDGET FOR ENTIRE MODEL AT END OF TIME STEP    2, STRESS PERIOD   3
  ---------------------------------------------------------------------------------------------------

     CUMULATIVE VOLUME      L**3       RATES FOR THIS TIME STEP      L**3/T          PACKAGE NAME    
     ------------------                 ------------------------                     ----------------

           IN:                                      IN:
           ---                                      ---
              STO-SS =      132562.1493                STO-SS =           0.0000     STORAGE                          
              STO-SY =        4792.3889                STO-SY =           0.0000     STORAGE                          
                 WEL =           0.0000                   WEL =           0.0000     WEL-1                            
                RCHA =     1851272.5589                  RCHA =      128250.0000     RCH-1                            
                 CHD =           0.0000                   CHD =           0.0000     CHD-FROM-IBOUND                  

            TOTAL IN =     1988627.0971              TOTAL IN =      128250.0000

          OUT:                                     OUT:
          ----                                     ----
              STO-SS =      291985.1207                STO-SS =       78191.7347     STORAGE                          
              STO-SY =       10563.3589                STO-SY =        2828.6220     STORAGE                          
                 WEL =           0.0000                   WEL =           0.0000     WEL-1                            
                RCHA =           0.0000                  RCHA =           0.0000     RCH-1                            
                 CHD =     1686079.0093                   CHD =       47229.6433     CHD-FROM-IBOUND                  

           TOTAL OUT =     1988627.4889             TOTAL OUT =      128250.0001

            IN - OUT =          -0.3917              IN - OUT =      -5.5628E-05

 PERCENT DISCREPANCY =          -0.00     PERCENT DISCREPANCY =          -0.00




         TIME SUMMARY AT END OF TIME STEP    2 IN STRESS PERIOD    3
                    SECONDS     MINUTES      HOURS       DAYS        YEARS
                    -----------------------------------------------------------
   TIME STEP LENGTH 1.75952E+05  2932.5      48.875      2.0365     5.57557E-03
 STRESS PERIOD TIME 3.22578E+05  5376.3      89.605      3.7335     1.02219E-02
         TOTAL TIME 3.08738E+06  51456.      857.60      35.734     9.78331E-02


end timestep


start timestep kper="3" kstp="3" mode="normal"

 UBDSV1 SAVING     FLOW-JA-FACE ON UNIT   1031 AT TIME STEP      3, STRESS PERIOD      3
 UBDSV06 SAVING              WEL IN MODEL MUMODEL          PACKAGE MUMODEL         CONNECTED TO MODEL MUMODEL          PACKAGE WEL-1            ON UNIT   1031 AT TIME STEP      3, STRESS PERIOD      3
 UBDSV06 SAVING             RCHA IN MODEL MUMODEL          PACKAGE MUMODEL         CONNECTED TO MODEL MUMODEL          PACKAGE RCH-1            ON UNIT   1031 AT TIME STEP      3, STRESS PERIOD      3

 WEL PACKAGE (WEL-1) FLOW RATES   PERIOD      3   STEP        3
 -----------------------------------------------
   NUMBER   CELLID                    RATE      
 -----------------------------------------------
     1      (1,5,5)               0.0000000     
     2      (1,11,5)              0.0000000     
     3      (1,5,5)               0.0000000     
 -----------------------------------------------




 CHD PACKAGE (CHD-FROM-IBOUND) FLOW RATES   PERIOD      3   STEP        3
 -----------------------------------------------
   NUMBER   CELLID                    RATE      
 -----------------------------------------------
     1      (1,1,1)              -2626.0483     
     2      (1,1,2)              -2626.0554     
     3      (1,1,3)              -2626.0539     
     4      (1,1,4)              -2626.0504     
     5      (1,1,5)              -2626.0475     
     6      (1,1,6)              -2626.0450     
     7      (1,1,7)              -2626.0421     
     8      (1,1,8)              -2626.0383     
     9      (1,1,9)              -2626.0342     
     10     (1,21,1)             -2626.0324     
     11     (1,21,2)             -2626.0393     
     12     (1,21,3)             -2626.0445     
     13     (1,21,4)             -2626.0477     
     14     (1,21,5)             -2626.0509     
     15     (1,21,6)             -2626.0551     
     16     (1,21,7)             -2626.0595     
     17     (1,21,8)             -2626.0598     
     18     (1,21,9)             -2626.0469     
 -----------------------------------------------




 HEAD WILL BE SAVED ON UNIT 1032 AT END OF TIME STEP    3, STRESS PERIOD    3


  VOLUME BUDGET FOR ENTIRE MODEL AT END OF TIME STEP    3, STRESS PERIOD   3
  ---------------------------------------------------------------------------------------------------

     CUMULATIVE VOLUME      L**3       RATES FOR THIS TIME STEP      L**3/T          PACKAGE NAME    
     ------------------                 ------------------------                     ----------------

           IN:                                      IN:
           ---                                      ---
              STO-SS =      132562.1493                STO-SS =           0.0000     STORAGE                          
              STO-SY =        4792.3889                STO-SY =           0.0000     STORAGE                          
                 WEL =           0.0000                   WEL =           0.0000     WEL-1                            
                RCHA =     2164686.3066                  RCHA =      128250.0000     RCH-1                            
                 CHD =           0.0000                   CHD =           0.0000     CHD-FROM-IBOUND                  

            TOTAL IN =     2302040.8448              TOTAL IN =      128250.0000

          OUT:                                     OUT:
          ----                                     ----
              STO-SS =      482976.5150                STO-SS =       78154.3455     STORAGE                          
              STO-SY =       17471.4216                STO-SY =        2826.8034     STORAGE                          
                 WEL =           0.0000                   WEL =           0.0000     WEL-1                            
                RCHA =           0.0000                  RCHA =           0.0000     RCH-1                            
                 CHD =     1801593.3002                   CHD =       47268.8512     CHD-FROM-IBOUND                  

           TOTAL OUT =     2302041.2368             TOTAL OUT =      128250.0001

            IN - OUT =          -0.3920              IN - OUT =      -9.0900E-05

 PERCENT DISCREPANCY =          -0.00     PERCENT DISCREPANCY =          -0.00




         TIME SUMMARY AT END OF TIME STEP    3 IN STRESS PERIOD    3
                    SECONDS     MINUTES      HOURS       DAYS        YEARS
                    -----------------------------------------------------------
   TIME STEP LENGTH 2.11142E+05  3519.0      58.651      2.4438     6.69068E-03
 STRESS PERIOD TIME 5.33720E+05  8895.3      148.26      6.1773     1.69126E-02
         TOTAL TIME 3.29852E+06  54975.      916.26      38.177     0.10452    


end timestep


start timestep kper="3" kstp="4" mode="normal"

 UBDSV1 SAVING     FLOW-JA-FACE ON UNIT   1031 AT TIME STEP      4, STRESS PERIOD      3
 UBDSV06 SAVING              WEL IN MODEL MUMODEL          PACKAGE MUMODEL         CONNECTED TO MODEL MUMODEL          PACKAGE WEL-1            ON UNIT   1031 AT TIME STEP      4, STRESS PERIOD      3
 UBDSV06 SAVING             RCHA IN MODEL MUMODEL          PACKAGE MUMODEL         CONNECTED TO MODEL MUMODEL          PACKAGE RCH-1            ON UNIT   1031 AT TIME STEP      4, STRESS PERIOD      3

 WEL PACKAGE (WEL-1) FLOW RATES   PERIOD      3   STEP        4
 -----------------------------------------------
   NUMBER   CELLID                    RATE      
 -----------------------------------------------
     1      (1,5,5)               0.0000000     
     2      (1,11,5)              0.0000000     
     3      (1,5,5)               0.0000000     
 -----------------------------------------------




 CHD PACKAGE (CHD-FROM-IBOUND) FLOW RATES   PERIOD      3   STEP        4
 -----------------------------------------------
   NUMBER   CELLID                    RATE      
 -----------------------------------------------
     1      (1,1,1)              -2628.6479     
     2      (1,1,2)              -2628.6550     
     3      (1,1,3)              -2628.6535     
     4      (1,1,4)              -2628.6501     
     5      (1,1,5)              -2628.6471     
     6      (1,1,6)              -2628.6446     
     7      (1,1,7)              -2628.6418     
     8      (1,1,8)              -2628.6380     
     9      (1,1,9)              -2628.6339     
     10     (1,21,1)             -2628.6321     
     11     (1,21,2)             -2628.6390     
     12     (1,21,3)             -2628.6442     
     13     (1,21,4)             -2628.6474     
     14     (1,21,5)             -2628.6505     
     15     (1,21,6)             -2628.6547     
     16     (1,21,7)             -2628.6591     
     17     (1,21,8)             -2628.6593     
     18     (1,21,9)             -2628.6466     
 -----------------------------------------------




 HEAD WILL BE SAVED ON UNIT 1032 AT END OF TIME STEP    4, STRESS PERIOD    3


  VOLUME BUDGET FOR ENTIRE MODEL AT END OF TIME STEP    4, STRESS PERIOD   3
  ---------------------------------------------------------------------------------------------------

     CUMULATIVE VOLUME      L**3       RATES FOR THIS TIME STEP      L**3/T          PACKAGE NAME    
     ------------------                 ------------------------                     ----------------

           IN:                                      IN:
           ---                                      ---
              STO-SS =      132562.1493                STO-SS =           0.0000     STORAGE                          
              STO-SY =        4792.3889                STO-SY =           0.0000     STORAGE                          
                 WEL =           0.0000                   WEL =           0.0000     WEL-1                            
                RCHA =     2540782.8037                  RCHA =      128250.0000     RCH-1                            
                 CHD =           0.0000                   CHD =           0.0000     CHD-FROM-IBOUND                  

            TOTAL IN =     2678137.3420              TOTAL IN =      128250.0000

          OUT:                                     OUT:
          ----                                     ----
              STO-SS =      712035.3290                STO-SS =       78109.7222     STORAGE                          
              STO-SY =       25754.7332                STO-SY =        2824.6333     STORAGE                          
                 WEL =           0.0000                   WEL =           0.0000     WEL-1                            
                RCHA =           0.0000                  RCHA =           0.0000     RCH-1                            
                 CHD =     1940347.6722                   CHD =       47315.6446     CHD-FROM-IBOUND                  

           TOTAL OUT =     2678137.7344             TOTAL OUT =      128250.0001

            IN - OUT =          -0.3924              IN - OUT =      -1.4861E-04

 PERCENT DISCREPANCY =          -0.00     PERCENT DISCREPANCY =          -0.00




         TIME SUMMARY AT END OF TIME STEP    4 IN STRESS PERIOD    3
                    SECONDS     MINUTES      HOURS       DAYS        YEARS
                    -----------------------------------------------------------
   TIME STEP LENGTH 2.53370E+05  4222.8      70.381      2.9325     8.02882E-03
 STRESS PERIOD TIME 7.87090E+05  13118.      218.64      9.1098     2.49414E-02
         TOTAL TIME 3.55189E+06  59198.      986.64      41.110     0.11255    


end timestep


start timestep kper="3" kstp="5" mode="normal"

 UBDSV1 SAVING     FLOW-JA-FACE ON UNIT   1031 AT TIME STEP      5, STRESS PERIOD      3
 UBDSV06 SAVING              WEL IN MODEL MUMODEL          PACKAGE MUMODEL         CONNECTED TO MODEL MUMODEL          PACKAGE WEL-1            ON UNIT   1031 AT TIME STEP      5, STRESS PERIOD      3
 UBDSV06 SAVING             RCHA IN MODEL MUMODEL          PACKAGE MUMODEL         CONNECTED TO MODEL MUMODEL          PACKAGE RCH-1            ON UNIT   1031 AT TIME STEP      5, STRESS PERIOD      3

 WEL PACKAGE (WEL-1) FLOW RATES   PERIOD      3   STEP        5
 -----------------------------------------------
   NUMBER   CELLID                    RATE      
 -----------------------------------------------
     1      (1,5,5)               0.0000000     
     2      (1,11,5)              0.0000000     
     3      (1,5,5)               0.0000000     
 -----------------------------------------------




 CHD PACKAGE (CHD-FROM-IBOUND) FLOW RATES   PERIOD      3   STEP        5
 -----------------------------------------------
   NUMBER   CELLID                    RATE      
 -----------------------------------------------
     1      (1,1,1)              -2631.7473     
     2      (1,1,2)              -2631.7542     
     3      (1,1,3)              -2631.7528     
     4      (1,1,4)              -2631.7494     
     5      (1,1,5)              -2631.7465     
     6      (1,1,6)              -2631.7440     
     7      (1,1,7)              -2631.7412     
     8      (1,1,8)              -2631.7374     
     9      (1,1,9)              -2631.7333     
     10     (1,21,1)             -2631.7316     
     11     (1,21,2)             -2631.7384     
     12     (1,21,3)             -2631.7436     
     13     (1,21,4)             -2631.7467     
     14     (1,21,5)             -2631.7498     
     15     (1,21,6)             -2631.7540     
     16     (1,21,7)             -2631.7583     
     17     (1,21,8)             -2631.7585     
     18     (1,21,9)             -2631.7459     
 -----------------------------------------------




 HEAD WILL BE SAVED ON UNIT 1032 AT END OF TIME STEP    5, STRESS PERIOD    3


  VOLUME BUDGET FOR ENTIRE MODEL AT END OF TIME STEP    5, STRESS PERIOD   3
  ---------------------------------------------------------------------------------------------------

     CUMULATIVE VOLUME      L**3       RATES FOR THIS TIME STEP      L**3/T          PACKAGE NAME    
     ------------------                 ------------------------                     ----------------

           IN:                                      IN:
           ---                                      ---
              STO-SS =      132562.1493                STO-SS =           0.0000     STORAGE                          
              STO-SY =        4792.3889                STO-SY =           0.0000     STORAGE                          
                 WEL =           0.0000                   WEL =           0.0000     WEL-1                            
                RCHA =     2992098.6004                  RCHA =      128250.0000     RCH-1                            
                 CHD =           0.0000                   CHD =           0.0000     CHD-FROM-IBOUND                  

            TOTAL IN =     3129453.1386              TOTAL IN =      128250.0000

          OUT:                                     OUT:
          ----                                     ----
              STO-SS =      986718.6880                STO-SS =       78056.5206     STORAGE                          
              STO-SY =       35685.6046                STO-SY =        2822.0467     STORAGE                          
                 WEL =           0.0000                   WEL =           0.0000     WEL-1                            
                RCHA =           0.0000                  RCHA =           0.0000     RCH-1                            
                 CHD =     2107049.2393                   CHD =       47371.4329     CHD-FROM-IBOUND                  

           TOTAL OUT =     3129453.5319             TOTAL OUT =      128250.0003

            IN - OUT =          -0.3933              IN - OUT =      -2.5880E-04

 PERCENT DISCREPANCY =          -0.00     PERCENT DISCREPANCY =          -0.00




         TIME SUMMARY AT END OF TIME STEP    5 IN STRESS PERIOD    3
                    SECONDS     MINUTES      HOURS       DAYS        YEARS
                    -----------------------------------------------------------
   TIME STEP LENGTH 3.04044E+05  5067.4      84.457      3.5190     9.63458E-03
 STRESS PERIOD TIME 1.09113E+06  18186.      303.09      12.629     3.45760E-02
         TOTAL TIME 3.85593E+06  64266.      1071.1      44.629     0.12219    


end timestep


start timestep kper="3" kstp="6" mode="normal"

 UBDSV1 SAVING     FLOW-JA-FACE ON UNIT   1031 AT TIME STEP      6, STRESS PERIOD      3
 UBDSV06 SAVING              WEL IN MODEL MUMODEL          PACKAGE MUMODEL         CONNECTED TO MODEL MUMODEL          PACKAGE WEL-1            ON UNIT   1031 AT TIME STEP      6, STRESS PERIOD      3
 UBDSV06 SAVING             RCHA IN MODEL MUMODEL          PACKAGE MUMODEL         CONNECTED TO MODEL MUMODEL          PACKAGE RCH-1            ON UNIT   1031 AT TIME STEP      6, STRESS PERIOD      3

 WEL PACKAGE (WEL-1) FLOW RATES   PERIOD      3   STEP        6
 -----------------------------------------------
   NUMBER   CELLID                    RATE      
 -----------------------------------------------
     1      (1,5,5)               0.0000000     
     2      (1,11,5)              0.0000000     
     3      (1,5,5)               0.0000000     
 -----------------------------------------------




 CHD PACKAGE (CHD-FROM-IBOUND) FLOW RATES   PERIOD      3   STEP        6
 -----------------------------------------------
   NUMBER   CELLID                    RATE      
 -----------------------------------------------
     1      (1,1,1)              -2635.4379     
     2      (1,1,2)              -2635.4447     
     3      (1,1,3)              -2635.4433     
     4      (1,1,4)              -2635.4400     
     5      (1,1,5)              -2635.4370     
     6      (1,1,6)              -2635.4346     
     7      (1,1,7)              -2635.4318     
     8      (1,1,8)              -2635.4280     
     9      (1,1,9)              -2635.4240     
     10     (1,21,1)             -2635.4223     
     11     (1,21,2)             -2635.4291     
     12     (1,21,3)             -2635.4342     
     13     (1,21,4)             -2635.4373     
     14     (1,21,5)             -2635.4404     
     15     (1,21,6)             -2635.4445     
     16     (1,21,7)             -2635.4488     
     17     (1,21,8)             -2635.4488     
     18     (1,21,9)             -2635.4365     
 -----------------------------------------------




 HEAD WILL BE SAVED ON UNIT 1032 AT END OF TIME STEP    6, STRESS PERIOD    3


  VOLUME BUDGET FOR ENTIRE MODEL AT END OF TIME STEP    6, STRESS PERIOD   3
  ---------------------------------------------------------------------------------------------------

     CUMULATIVE VOLUME      L**3       RATES FOR THIS TIME STEP      L**3/T          PACKAGE NAME    
     ------------------                 ------------------------                     ----------------

           IN:                                      IN:
           ---                                      ---
              STO-SS =      132562.1493                STO-SS =           0.0000     STORAGE                          
              STO-SY =        4792.3889                STO-SY =           0.0000     STORAGE                          
                 WEL =           0.0000                   WEL =           0.0000     WEL-1                            
[...]

           TOTAL OUT =    57309403.0885             TOTAL OUT =       66742.2474

            IN - OUT =         -12.4614              IN - OUT =      -2.3154E-04

 PERCENT DISCREPANCY =          -0.00     PERCENT DISCREPANCY =          -0.00




         TIME SUMMARY AT END OF TIME STEP    4 IN STRESS PERIOD   25
                    SECONDS     MINUTES      HOURS       DAYS        YEARS
                    -----------------------------------------------------------
   TIME STEP LENGTH 2.80517E+05  4675.3      77.921      3.2467     8.88905E-03
 STRESS PERIOD TIME 8.71421E+05  14524.      242.06      10.086     2.76137E-02
         TOTAL TIME 6.13514E+07 1.02252E+06  17042.      710.09      1.9441    


end timestep


start timestep kper="25" kstp="5" mode="normal"

 UBDSV1 SAVING     FLOW-JA-FACE ON UNIT   1031 AT TIME STEP      5, STRESS PERIOD     25
 UBDSV06 SAVING              WEL IN MODEL MUMODEL          PACKAGE MUMODEL         CONNECTED TO MODEL MUMODEL          PACKAGE WEL-1            ON UNIT   1031 AT TIME STEP      5, STRESS PERIOD     25
 UBDSV06 SAVING             RCHA IN MODEL MUMODEL          PACKAGE MUMODEL         CONNECTED TO MODEL MUMODEL          PACKAGE RCH-1            ON UNIT   1031 AT TIME STEP      5, STRESS PERIOD     25

 WEL PACKAGE (WEL-1) FLOW RATES   PERIOD     25   STEP        5
 -----------------------------------------------
   NUMBER   CELLID                    RATE      
 -----------------------------------------------
     1      (1,5,5)              -20000.000     
     2      (1,11,5)              0.0000000     
     3      (1,5,5)               0.0000000     
 -----------------------------------------------




 CHD PACKAGE (CHD-FROM-IBOUND) FLOW RATES   PERIOD     25   STEP        5
 -----------------------------------------------
   NUMBER   CELLID                    RATE      
 -----------------------------------------------
     1      (1,1,1)              -2599.2340     
     2      (1,1,2)              -2598.7200     
     3      (1,1,3)              -2596.0118     
     4      (1,1,4)              -2586.3736     
     5      (1,1,5)              -2570.0111     
     6      (1,1,6)              -2586.3713     
     7      (1,1,7)              -2596.0075     
     8      (1,1,8)              -2598.7143     
     9      (1,1,9)              -2599.2276     
     10     (1,21,1)             -2599.3305     
     11     (1,21,2)             -2599.3318     
     12     (1,21,3)             -2599.3335     
     13     (1,21,4)             -2599.3350     
     14     (1,21,5)             -2599.3363     
     15     (1,21,6)             -2599.3371     
     16     (1,21,7)             -2599.3369     
     17     (1,21,8)             -2599.3355     
     18     (1,21,9)             -2599.3340     
 -----------------------------------------------




 HEAD WILL BE SAVED ON UNIT 1032 AT END OF TIME STEP    5, STRESS PERIOD   25


  VOLUME BUDGET FOR ENTIRE MODEL AT END OF TIME STEP    5, STRESS PERIOD  25
  ---------------------------------------------------------------------------------------------------

     CUMULATIVE VOLUME      L**3       RATES FOR THIS TIME STEP      L**3/T          PACKAGE NAME    
     ------------------                 ------------------------                     ----------------

           IN:                                      IN:
           ---                                      ---
              STO-SS =    22998964.7906                STO-SS =       43729.1599     STORAGE                          
              STO-SY =      845129.4412                STO-SY =        1620.5215     STORAGE                          
                 WEL =           0.0000                   WEL =           0.0000     WEL-1                            
                RCHA =    33725260.4679                  RCHA =       21375.0000     RCH-1                            
                 CHD =           0.0000                   CHD =           0.0000     CHD-FROM-IBOUND                  

            TOTAL IN =    57569354.6997              TOTAL IN =       66724.6814

          OUT:                                     OUT:
          ----                                     ----
              STO-SS =    15973443.5414                STO-SS =           0.0000     STORAGE                          
              STO-SY =      576205.3309                STO-SY =           0.0000     STORAGE                          
                 WEL =     6959639.2682                   WEL =       20000.0000     WEL-1                            
                RCHA =           0.0000                  RCHA =           0.0000     RCH-1                            
                 CHD =    34060079.0220                   CHD =       46724.6818     CHD-FROM-IBOUND                  

           TOTAL OUT =    57569367.1626             TOTAL OUT =       66724.6818

            IN - OUT =         -12.4629              IN - OUT =      -3.8765E-04

 PERCENT DISCREPANCY =          -0.00     PERCENT DISCREPANCY =          -0.00




         TIME SUMMARY AT END OF TIME STEP    5 IN STRESS PERIOD   25
                    SECONDS     MINUTES      HOURS       DAYS        YEARS
                    -----------------------------------------------------------
   TIME STEP LENGTH 3.36621E+05  5610.3      93.506      3.8961     1.06669E-02
 STRESS PERIOD TIME 1.20804E+06  20134.      335.57      13.982     3.82805E-02
         TOTAL TIME 6.16880E+07 1.02813E+06  17136.      713.98      1.9548    


end timestep


start timestep kper="25" kstp="6" mode="normal"

 UBDSV1 SAVING     FLOW-JA-FACE ON UNIT   1031 AT TIME STEP      6, STRESS PERIOD     25
 UBDSV06 SAVING              WEL IN MODEL MUMODEL          PACKAGE MUMODEL         CONNECTED TO MODEL MUMODEL          PACKAGE WEL-1            ON UNIT   1031 AT TIME STEP      6, STRESS PERIOD     25
 UBDSV06 SAVING             RCHA IN MODEL MUMODEL          PACKAGE MUMODEL         CONNECTED TO MODEL MUMODEL          PACKAGE RCH-1            ON UNIT   1031 AT TIME STEP      6, STRESS PERIOD     25

 WEL PACKAGE (WEL-1) FLOW RATES   PERIOD     25   STEP        6
 -----------------------------------------------
   NUMBER   CELLID                    RATE      
 -----------------------------------------------
     1      (1,5,5)              -20000.000     
     2      (1,11,5)              0.0000000     
     3      (1,5,5)               0.0000000     
 -----------------------------------------------




 CHD PACKAGE (CHD-FROM-IBOUND) FLOW RATES   PERIOD     25   STEP        6
 -----------------------------------------------
   NUMBER   CELLID                    RATE      
 -----------------------------------------------
     1      (1,1,1)              -2598.2022     
     2      (1,1,2)              -2597.6553     
     3      (1,1,3)              -2594.8058     
     4      (1,1,4)              -2584.7823     
     5      (1,1,5)              -2567.9761     
     6      (1,1,6)              -2584.7800     
     7      (1,1,7)              -2594.8015     
     8      (1,1,8)              -2597.6496     
     9      (1,1,9)              -2598.1959     
     10     (1,21,1)             -2598.3069     
     11     (1,21,2)             -2598.3081     
     12     (1,21,3)             -2598.3098     
     13     (1,21,4)             -2598.3113     
     14     (1,21,5)             -2598.3126     
     15     (1,21,6)             -2598.3133     
     16     (1,21,7)             -2598.3131     
     17     (1,21,8)             -2598.3118     
     18     (1,21,9)             -2598.3103     
 -----------------------------------------------




 HEAD WILL BE SAVED ON UNIT 1032 AT END OF TIME STEP    6, STRESS PERIOD   25


  VOLUME BUDGET FOR ENTIRE MODEL AT END OF TIME STEP    6, STRESS PERIOD  25
  ---------------------------------------------------------------------------------------------------

     CUMULATIVE VOLUME      L**3       RATES FOR THIS TIME STEP      L**3/T          PACKAGE NAME    
     ------------------                 ------------------------                     ----------------

           IN:                                      IN:
           ---                                      ---
              STO-SS =    23203316.5018                STO-SS =       43708.9335     STORAGE                          
              STO-SY =      852702.0575                STO-SY =        1619.7123     STORAGE                          
                 WEL =           0.0000                   WEL =           0.0000     WEL-1                            
                RCHA =    33825194.6800                  RCHA =       21375.0000     RCH-1                            
                 CHD =           0.0000                   CHD =           0.0000     CHD-FROM-IBOUND                  

            TOTAL IN =    57881213.2393              TOTAL IN =       66703.6458

          OUT:                                     OUT:
          ----                                     ----
              STO-SS =    15973443.5414                STO-SS =           0.0000     STORAGE                          
              STO-SY =      576205.3309                STO-SY =           0.0000     STORAGE                          
                 WEL =     7053144.9638                   WEL =       20000.0000     WEL-1                            
                RCHA =           0.0000                  RCHA =           0.0000     RCH-1                            
                 CHD =    34278431.8663                   CHD =       46703.6458     CHD-FROM-IBOUND                  

           TOTAL OUT =    57881225.7024             TOTAL OUT =       66703.6458

            IN - OUT =         -12.4631              IN - OUT =      -3.5301E-05

 PERCENT DISCREPANCY =          -0.00     PERCENT DISCREPANCY =          -0.00




         TIME SUMMARY AT END OF TIME STEP    6 IN STRESS PERIOD   25
                    SECONDS     MINUTES      HOURS       DAYS        YEARS
                    -----------------------------------------------------------
   TIME STEP LENGTH 4.03945E+05  6732.4      112.21      4.6753     1.28002E-02
 STRESS PERIOD TIME 1.61199E+06  26866.      447.77      18.657     5.10808E-02
         TOTAL TIME 6.20920E+07 1.03487E+06  17248.      718.66      1.9676    


end timestep


start timestep kper="25" kstp="7" mode="normal"

 UBDSV1 SAVING     FLOW-JA-FACE ON UNIT   1031 AT TIME STEP      7, STRESS PERIOD     25
 UBDSV06 SAVING              WEL IN MODEL MUMODEL          PACKAGE MUMODEL         CONNECTED TO MODEL MUMODEL          PACKAGE WEL-1            ON UNIT   1031 AT TIME STEP      7, STRESS PERIOD     25
 UBDSV06 SAVING             RCHA IN MODEL MUMODEL          PACKAGE MUMODEL         CONNECTED TO MODEL MUMODEL          PACKAGE RCH-1            ON UNIT   1031 AT TIME STEP      7, STRESS PERIOD     25

 WEL PACKAGE (WEL-1) FLOW RATES   PERIOD     25   STEP        7
 -----------------------------------------------
   NUMBER   CELLID                    RATE      
 -----------------------------------------------
     1      (1,5,5)              -20000.000     
     2      (1,11,5)              0.0000000     
     3      (1,5,5)               0.0000000     
 -----------------------------------------------




 CHD PACKAGE (CHD-FROM-IBOUND) FLOW RATES   PERIOD     25   STEP        7
 -----------------------------------------------
   NUMBER   CELLID                    RATE      
 -----------------------------------------------
     1      (1,1,1)              -2596.9716     
     2      (1,1,2)              -2596.3830     
     3      (1,1,3)              -2593.3573     
     4      (1,1,4)              -2582.8607     
     5      (1,1,5)              -2565.5189     
     6      (1,1,6)              -2582.8585     
     7      (1,1,7)              -2593.3531     
     8      (1,1,8)              -2596.3774     
     9      (1,1,9)              -2596.9654     
     10     (1,21,1)             -2597.0867     
     11     (1,21,2)             -2597.0880     
     12     (1,21,3)             -2597.0896     
     13     (1,21,4)             -2597.0911     
     14     (1,21,5)             -2597.0924     
     15     (1,21,6)             -2597.0932     
     16     (1,21,7)             -2597.0929     
     17     (1,21,8)             -2597.0916     
     18     (1,21,9)             -2597.0902     
 -----------------------------------------------




 HEAD WILL BE SAVED ON UNIT 1032 AT END OF TIME STEP    7, STRESS PERIOD   25


  VOLUME BUDGET FOR ENTIRE MODEL AT END OF TIME STEP    7, STRESS PERIOD  25
  ---------------------------------------------------------------------------------------------------

     CUMULATIVE VOLUME      L**3       RATES FOR THIS TIME STEP      L**3/T          PACKAGE NAME    
     ------------------                 ------------------------                     ----------------

           IN:                                      IN:
           ---                                      ---
              STO-SS =    23448402.6823                STO-SS =       43684.7152     STORAGE                          
              STO-SY =      861783.7782                STO-SY =        1618.7464     STORAGE                          
                 WEL =           0.0000                   WEL =           0.0000     WEL-1                            
                RCHA =    33945115.7346                  RCHA =       21375.0000     RCH-1                            
                 CHD =           0.0000                   CHD =           0.0000     CHD-FROM-IBOUND                  

            TOTAL IN =    58255302.1951              TOTAL IN =       66678.4616

          OUT:                                     OUT:
          ----                                     ----
              STO-SS =    15973443.5414                STO-SS =           0.0000     STORAGE                          
              STO-SY =      576205.3309                STO-SY =           0.0000     STORAGE                          
                 WEL =     7165351.7984                   WEL =       20000.0000     WEL-1                            
                RCHA =           0.0000                  RCHA =           0.0000     RCH-1                            
                 CHD =    34540313.9878                   CHD =       46678.4617     CHD-FROM-IBOUND                  

           TOTAL OUT =    58255314.6585             TOTAL OUT =       66678.4617

            IN - OUT =         -12.4634              IN - OUT =      -5.9309E-05

 PERCENT DISCREPANCY =          -0.00     PERCENT DISCREPANCY =          -0.00




         TIME SUMMARY AT END OF TIME STEP    7 IN STRESS PERIOD   25
                    SECONDS     MINUTES      HOURS       DAYS        YEARS
                    -----------------------------------------------------------
   TIME STEP LENGTH 4.84734E+05  8078.9      134.65      5.6103     1.53603E-02
 STRESS PERIOD TIME 2.09672E+06  34945.      582.42      24.268     6.64410E-02
         TOTAL TIME 6.25767E+07 1.04295E+06  17382.      724.27      1.9829    


end timestep


start timestep kper="25" kstp="8" mode="normal"

 UBDSV1 SAVING     FLOW-JA-FACE ON UNIT   1031 AT TIME STEP      8, STRESS PERIOD     25
 UBDSV06 SAVING              WEL IN MODEL MUMODEL          PACKAGE MUMODEL         CONNECTED TO MODEL MUMODEL          PACKAGE WEL-1            ON UNIT   1031 AT TIME STEP      8, STRESS PERIOD     25
 UBDSV06 SAVING             RCHA IN MODEL MUMODEL          PACKAGE MUMODEL         CONNECTED TO MODEL MUMODEL          PACKAGE RCH-1            ON UNIT   1031 AT TIME STEP      8, STRESS PERIOD     25

 WEL PACKAGE (WEL-1) FLOW RATES   PERIOD     25   STEP        8
 -----------------------------------------------
   NUMBER   CELLID                    RATE      
 -----------------------------------------------
     1      (1,5,5)              -20000.000     
     2      (1,11,5)              0.0000000     
     3      (1,5,5)               0.0000000     
 -----------------------------------------------




 CHD PACKAGE (CHD-FROM-IBOUND) FLOW RATES   PERIOD     25   STEP        8
 -----------------------------------------------
   NUMBER   CELLID                    RATE      
 -----------------------------------------------
     1      (1,1,1)              -2595.5055     
     2      (1,1,2)              -2594.8637     
     3      (1,1,3)              -2591.6170     
     4      (1,1,4)              -2580.5374     
     5      (1,1,5)              -2562.5485     
     6      (1,1,6)              -2580.5352     
     7      (1,1,7)              -2591.6128     
     8      (1,1,8)              -2594.8582     
     9      (1,1,9)              -2595.4993     
     10     (1,21,1)             -2595.6343     
     11     (1,21,2)             -2595.6355     
     12     (1,21,3)             -2595.6372     
     13     (1,21,4)             -2595.6387     
     14     (1,21,5)             -2595.6399     
     15     (1,21,6)             -2595.6407     
     16     (1,21,7)             -2595.6404     
     17     (1,21,8)             -2595.6391     
     18     (1,21,9)             -2595.6377     
 -----------------------------------------------




 HEAD WILL BE SAVED ON UNIT 1032 AT END OF TIME STEP    8, STRESS PERIOD   25


  VOLUME BUDGET FOR ENTIRE MODEL AT END OF TIME STEP    8, STRESS PERIOD  25
  ---------------------------------------------------------------------------------------------------

     CUMULATIVE VOLUME      L**3       RATES FOR THIS TIME STEP      L**3/T          PACKAGE NAME    
     ------------------                 ------------------------                     ----------------

           IN:                                      IN:
           ---                                      ---
              STO-SS =    23742310.9354                STO-SS =       43655.7265     STORAGE                          
              STO-SY =      872674.0881                STO-SY =        1617.5945     STORAGE                          
                 WEL =           0.0000                   WEL =           0.0000     WEL-1                            
                RCHA =    34089021.0000                  RCHA =       21375.0000     RCH-1                            
                 CHD =           0.0000                   CHD =           0.0000     CHD-FROM-IBOUND                  

            TOTAL IN =    58704006.0234              TOTAL IN =       66648.3210

          OUT:                                     OUT:
          ----                                     ----
              STO-SS =    15973443.5414                STO-SS =           0.0000     STORAGE                          
              STO-SY =      576205.3309                STO-SY =           0.0000     STORAGE                          
                 WEL =     7300000.0000                   WEL =       20000.0000     WEL-1                            
                RCHA =           0.0000                  RCHA =           0.0000     RCH-1                            
                 CHD =    34854369.6152                   CHD =       46648.3211     CHD-FROM-IBOUND                  

           TOTAL OUT =    58704018.4875             TOTAL OUT =       66648.3211

            IN - OUT =         -12.4640              IN - OUT =      -9.6874E-05

 PERCENT DISCREPANCY =          -0.00     PERCENT DISCREPANCY =          -0.00




         TIME SUMMARY AT END OF TIME STEP    8 IN STRESS PERIOD   25
                    SECONDS     MINUTES      HOURS       DAYS        YEARS
                    -----------------------------------------------------------
   TIME STEP LENGTH 5.81680E+05  9694.7      161.58      6.7324     1.84323E-02
 STRESS PERIOD TIME 2.67840E+06  44640.      744.00      31.000     8.48734E-02
         TOTAL TIME 6.31584E+07 1.05264E+06  17544.      731.00      2.0014    


end timestep

