                                  MODFLOW-2000
      U.S. GEOLOGICAL SURVEY MODULAR FINITE-DIFFERENCE GROUND-WATER FLOW MODEL
                           VERSION 1.19.01 03/25/2010


 This model run produced both GLOBAL and LIST files.  This is the LIST file.

 
 # MODFLOW2000 Basic Package                                                     
 #MODFLOW Data Set Created by Groundwater Vistas                                 
 #
    1 LAYERS        21 ROWS         9 COLUMNS
    25 STRESS PERIOD(S) IN SIMULATION

 BAS6 -- BASIC PACKAGE, VERSION 6, 1/11/2000 INPUT READ FROM UNIT      1
          5 ELEMENTS IN IR ARRAY ARE USED BY BAS

 WEL6 -- WELL PACKAGE, VERSION 6, 1/11/2000 INPUT READ FROM UNIT     12
 # MODFLOW2000 Well Package
 No named parameters
 MAXIMUM OF      3 ACTIVE WELLS AT ONE TIME
 CELL-BY-CELL FLOWS WILL BE SAVED ON UNIT     50
 AUXILIARY WELL VARIABLE: IFACE           
         15 ELEMENTS IN RX ARRAY ARE USED BY WEL

 RCH6 -- RECHARGE PACKAGE, VERSION 6, 1/11/2000 INPUT READ FROM UNIT     18
 # MODFLOW2000 Recharge Package
 No named parameters
 OPTION 3 -- RECHARGE TO HIGHEST ACTIVE NODE IN EACH VERTICAL COLUMN
 CELL-BY-CELL FLOWS WILL BE SAVED ON UNIT     50
        189 ELEMENTS IN RX ARRAY ARE USED BY RCH
        189 ELEMENTS IN IR ARRAY ARE USED BY RCH

        204  ELEMENTS OF RX ARRAY USED OUT OF        204
          0  ELEMENTS OF RZ ARRAY USED OUT OF          1
        194  ELEMENTS OF IR ARRAY USED OUT OF        194
1
 # MODFLOW2000 Basic Package                                                     
 #MODFLOW Data Set Created by Groundwater Vistas                                 



                     BOUNDARY ARRAY FOR LAYER     1
 READING ON UNIT     1 WITH FORMAT: (25I3)              

 AQUIFER HEAD WILL BE SET TO 0.99900E+03 AT ALL NO-FLOW NODES (IBOUND=0).



                       INITIAL HEAD FOR LAYER     1
 READING ON UNIT     1 WITH FORMAT: (10e12.4)           

 OUTPUT CONTROL IS SPECIFIED ONLY AT TIME STEPS FOR WHICH OUTPUT IS DESIRED
 HEAD PRINT FORMAT CODE IS     0    DRAWDOWN PRINT FORMAT CODE IS     0
 HEADS WILL BE SAVED ON UNIT    30    DRAWDOWNS WILL BE SAVED ON UNIT    31
1
                            STRESS PERIOD NO.      1, LENGTH =   1.000000    
                            -----------------------------------------------

                              NUMBER OF TIME STEPS =     1

                               MULTIPLIER FOR DELT =     1.200

                            INITIAL TIME STEP SIZE =   1.000000    

 WELL NO.  LAYER   ROW   COL   STRESS RATE         IFACE           
 ------------------------------------------------------------------
      1      1      5      5       0.000           0.000    
      2      1     11      5       0.000           0.000    
      3      1      5      5       0.000           0.000    

      3 WELLS



                           RECHARGE
 READING ON UNIT    18 WITH FORMAT: (10e12.4)           
 
 SOLVING FOR HEAD 


     7 CALLS TO PCG ROUTINE FOR TIME STEP   1 IN STRESS PERIOD    1
    51 TOTAL ITERATIONS

 MAXIMUM HEAD CHANGE FOR EACH ITERATION (1 INDICATES THE FIRST INNER ITERATION):

    HEAD CHANGE    HEAD CHANGE    HEAD CHANGE    HEAD CHANGE    HEAD CHANGE 
   LAYER,ROW,COL  LAYER,ROW,COL  LAYER,ROW,COL  LAYER,ROW,COL  LAYER,ROW,COL
 ---------------------------------------------------------------------------
  1  -106.1      0  -46.50      0  -24.33      0  -11.63      0  -6.517    
   (  1, 20,  6)  (  1, 11,  9)  (  1,  4,  9)  (  1,  2,  9)  (  1,  5,  1)
  0   3.007      0  -1.526      0  0.2974      0 -0.1511      0  0.7381E-01
   (  1, 17,  9)  (  1,  8,  1)  (  1, 17,  6)  (  1,  7,  4)  (  1, 15,  7)
  0 -0.2357E-01  0  0.9335E-02  0  0.1981E-02  0  0.9609E-03  0  0.2106E-03
   (  1, 20,  9)  (  1, 14,  8)  (  1, 18,  1)  (  1, 12,  9)  (  1, 16,  7)
  0 -0.1229E-03  1   6.283      0   3.802      0   1.857      0  0.5939    
   (  1, 17,  9)  (  1, 12,  5)  (  1,  9,  9)  (  1,  6,  9)  (  1,  4,  9)
  0  0.1530      0  0.5727E-01  0  0.3901E-01  0  0.1401E-01  0 -0.4320E-02
   (  1, 12,  3)  (  1, 10,  6)  (  1, 14,  3)  (  1, 20,  9)  (  1, 14,  8)
  0  0.1073E-02  0 -0.5967E-03  1  -1.111      0 -0.8318      0 -0.3743    
   (  1, 12,  1)  (  1, 17,  4)  (  1, 12,  6)  (  1, 10,  9)  (  1,  7,  9)
  0 -0.1087      0 -0.5454E-01  0 -0.2049E-01  0 -0.8246E-02  0  0.2782E-02
   (  1, 10,  6)  (  1, 14,  3)  (  1,  8,  7)  (  1,  7,  8)  (  1,  8,  2)
  0 -0.7259E-03  1  0.1280      0  0.9632E-01  0  0.3847E-01  0  0.1229E-01
   (  1, 16,  3)  (  1, 12,  6)  (  1, 10,  9)  (  1,  7,  9)  (  1, 10,  6)
  0  0.7254E-02  0  0.2514E-02  0  0.9682E-03  1 -0.1240E-01  0 -0.9316E-02
   (  1, 14,  3)  (  1,  8,  7)  (  1,  7,  8)  (  1, 11,  5)  (  1, 11,  9)
  0 -0.3364E-02  0 -0.1170E-02  0 -0.7729E-03  1  0.1064E-02  0  0.7324E-03
   (  1,  8,  9)  (  1, 10,  6)  (  1, 15,  4)  (  1, 11,  5)  (  1, 11,  9)
  1 -0.1851E-03
   (  1, 10,  7)

 MAXIMUM RESIDUAL FOR EACH ITERATION (1 INDICATES THE FIRST INNER ITERATION):

    RESIDUAL       RESIDUAL       RESIDUAL       RESIDUAL       RESIDUAL    
   LAYER,ROW,COL  LAYER,ROW,COL  LAYER,ROW,COL  LAYER,ROW,COL  LAYER,ROW,COL
 ---------------------------------------------------------------------------
  1  0.1729E+06  0  0.8231E+05  0 -0.6541E+05  0  0.3360E+05  0  0.1038E+05
   (  1, 20,  1)  (  1,  2,  4)  (  1, 20,  2)  (  1, 19,  2)  (  1, 19,  2)
  0  -7321.      0  -2644.      0   1366.      0   714.8      0  -223.5    
   (  1, 19,  3)  (  1,  2,  9)  (  1, 20,  9)  (  1, 20,  9)  (  1,  4,  8)
  0  -74.90      0  -16.06      0  -6.718      0  -2.105      0  -1.044    
   (  1,  3,  8)  (  1,  3,  8)  (  1, 18,  4)  (  1, 20,  9)  (  1, 20,  9)
  0 -0.5898      1   1549.      0  -1152.      0  -671.2      0   268.9    
   (  1, 20,  9)  (  1, 20,  9)  (  1, 18,  1)  (  1, 19,  1)  (  1, 19,  2)
  0  -118.3      0  -86.16      0  -35.39      0  -8.645      0  -2.407    
   (  1, 18,  2)  (  1, 20,  9)  (  1, 20,  9)  (  1,  4,  8)  (  1, 17,  3)
  0  0.9033      0  0.5621      1   320.6      0   270.6      0   127.0    
   (  1, 20,  9)  (  1, 20,  9)  (  1, 13,  1)  (  1, 17,  1)  (  1, 19,  1)
  0  -57.71      0   33.99      0   18.87      0   5.848      0   2.037    
   (  1, 19,  2)  (  1,  9,  8)  (  1, 20,  9)  (  1,  5,  8)  (  1, 20,  8)
  0  0.6485      1  -39.32      0  -29.50      0   16.51      0   7.091    
   (  1,  3,  2)  (  1, 13,  1)  (  1, 16,  1)  (  1,  8,  1)  (  1, 13,  9)
  0   4.059      0  -1.765      0  0.7100      1   4.198      0  -3.041    
   (  1, 12,  1)  (  1,  7,  8)  (  1,  8,  2)  (  1, 13,  1)  (  1, 15,  9)
  0  -1.771      0 -0.7546      0 -0.4347      1 -0.6260      0 -0.2781    
   (  1,  8,  1)  (  1, 13,  9)  (  1, 11,  1)  (  1, 12,  1)  (  1,  9,  9)
  1 -0.1258    
   (  1, 14,  1)



 OUTPUT CONTROL FOR STRESS PERIOD      1   TIME STEP      1
    SAVE HEAD FOR ALL LAYERS
    SAVE DRAWDOWN FOR ALL LAYERS
    SAVE BUDGET
    PRINT BUDGET
 UBUDSV SAVING "   CONSTANT HEAD" ON UNIT    50 AT TIME STEP     1, STRESS PERIOD      1
 UBUDSV SAVING "FLOW RIGHT FACE " ON UNIT    50 AT TIME STEP     1, STRESS PERIOD      1
 UBUDSV SAVING "FLOW FRONT FACE " ON UNIT    50 AT TIME STEP     1, STRESS PERIOD      1
 UBUDSV SAVING "           WELLS" ON UNIT    50 AT TIME STEP     1, STRESS PERIOD      1
 UBUDSV SAVING "        RECHARGE" ON UNIT    50 AT TIME STEP     1, STRESS PERIOD      1

 HEAD WILL BE SAVED ON UNIT     30 AT END OF TIME STEP      1, STRESS PERIOD      1

 DRAWDOWN WILL BE SAVED ON UNIT     31 AT END OF TIME STEP      1, STRESS PERIOD      1
1
  VOLUMETRIC BUDGET FOR ENTIRE MODEL AT END OF TIME STEP     1 IN STRESS PERIOD     1
  ------------------------------------------------------------------------------

     CUMULATIVE VOLUMES      L**3       RATES FOR THIS TIME STEP      L**3/T
     ------------------                 ------------------------

           IN:                                      IN:
           ---                                      ---
             STORAGE =           0.0000               STORAGE =           0.0000
       CONSTANT HEAD =           0.0000         CONSTANT HEAD =           0.0000
               WELLS =           0.0000                 WELLS =           0.0000
            RECHARGE =       47196.0000              RECHARGE =       47196.0000

            TOTAL IN =       47196.0000              TOTAL IN =       47196.0000

          OUT:                                     OUT:
          ----                                     ----
             STORAGE =           0.0000               STORAGE =           0.0000
       CONSTANT HEAD =       47196.0977         CONSTANT HEAD =       47196.0977
               WELLS =           0.0000                 WELLS =           0.0000
            RECHARGE =           0.0000              RECHARGE =           0.0000

           TOTAL OUT =       47196.0977             TOTAL OUT =       47196.0977

            IN - OUT =      -9.7656E-02              IN - OUT =      -9.7656E-02

 PERCENT DISCREPANCY =          -0.00     PERCENT DISCREPANCY =          -0.00






          TIME SUMMARY AT END OF TIME STEP      1 IN STRESS PERIOD      1
                    SECONDS     MINUTES      HOURS       DAYS        YEARS
                    -----------------------------------------------------------
   TIME STEP LENGTH  86400.      1440.0      24.000      1.0000     2.73785E-03
 STRESS PERIOD TIME  86400.      1440.0      24.000      1.0000     2.73785E-03
         TOTAL TIME  86400.      1440.0      24.000      1.0000     2.73785E-03
1
1
                            STRESS PERIOD NO.      2, LENGTH =   31.00000    
                            -----------------------------------------------

                              NUMBER OF TIME STEPS =     8

                               MULTIPLIER FOR DELT =     1.200

                            INITIAL TIME STEP SIZE =   1.878892    

 WELL NO.  LAYER   ROW   COL   STRESS RATE         IFACE           
 ------------------------------------------------------------------
      1      1      5      5       0.000           0.000    
      2      1     11      5       0.000           0.000    
      3      1      5      5       0.000           0.000    

      3 WELLS



                           RECHARGE
 READING ON UNIT    18 WITH FORMAT: (10e12.4)           
 
 SOLVING FOR HEAD 


     2 CALLS TO PCG ROUTINE FOR TIME STEP   1 IN STRESS PERIOD    2
     3 TOTAL ITERATIONS

 OUTPUT CONTROL FOR STRESS PERIOD      2   TIME STEP      1
    SAVE HEAD FOR ALL LAYERS
    SAVE DRAWDOWN FOR ALL LAYERS
    SAVE BUDGET
    PRINT BUDGET
 UBUDSV SAVING "         STORAGE" ON UNIT    50 AT TIME STEP     1, STRESS PERIOD      2
 UBUDSV SAVING "   CONSTANT HEAD" ON UNIT    50 AT TIME STEP     1, STRESS PERIOD      2
 UBUDSV SAVING "FLOW RIGHT FACE " ON UNIT    50 AT TIME STEP     1, STRESS PERIOD      2
 UBUDSV SAVING "FLOW FRONT FACE " ON UNIT    50 AT TIME STEP     1, STRESS PERIOD      2
 UBUDSV SAVING "           WELLS" ON UNIT    50 AT TIME STEP     1, STRESS PERIOD      2
 UBUDSV SAVING "        RECHARGE" ON UNIT    50 AT TIME STEP     1, STRESS PERIOD      2

 HEAD WILL BE SAVED ON UNIT     30 AT END OF TIME STEP      1, STRESS PERIOD      2

 DRAWDOWN WILL BE SAVED ON UNIT     31 AT END OF TIME STEP      1, STRESS PERIOD      2
1
  VOLUMETRIC BUDGET FOR ENTIRE MODEL AT END OF TIME STEP     1 IN STRESS PERIOD     2
  ------------------------------------------------------------------------------

     CUMULATIVE VOLUMES      L**3       RATES FOR THIS TIME STEP      L**3/T
     ------------------                 ------------------------

           IN:                                      IN:
           ---                                      ---
             STORAGE =        8407.8057               STORAGE =        4474.8750
       CONSTANT HEAD =           0.0000         CONSTANT HEAD =           0.0000
               WELLS =           0.0000                 WELLS =           0.0000
            RECHARGE =      127518.6172              RECHARGE =       42750.0000

            TOTAL IN =      135926.4219              TOTAL IN =       47224.8750

          OUT:                                     OUT:
          ----                                     ----
             STORAGE =           0.0000               STORAGE =           0.0000
       CONSTANT HEAD =      135802.3438         CONSTANT HEAD =       47158.7852
               WELLS =           0.0000                 WELLS =           0.0000
            RECHARGE =           0.0000              RECHARGE =           0.0000

           TOTAL OUT =      135802.3438             TOTAL OUT =       47158.7852

            IN - OUT =         124.0781              IN - OUT =          66.0898

 PERCENT DISCREPANCY =           0.09     PERCENT DISCREPANCY =           0.14






          TIME SUMMARY AT END OF TIME STEP      1 IN STRESS PERIOD      2
                    SECONDS     MINUTES      HOURS       DAYS        YEARS
                    -----------------------------------------------------------
   TIME STEP LENGTH 1.62336E+05  2705.6      45.093      1.8789     5.14413E-03
 STRESS PERIOD TIME 1.62336E+05  2705.6      45.093      1.8789     5.14413E-03
         TOTAL TIME 2.48736E+05  4145.6      69.093      2.8789     7.88198E-03
1
 
 SOLVING FOR HEAD 
     2 CALLS TO PCG ROUTINE FOR TIME STEP   2 IN STRESS PERIOD    2
     3 TOTAL ITERATIONS

 OUTPUT CONTROL FOR STRESS PERIOD      2   TIME STEP      2
    SAVE HEAD FOR ALL LAYERS
    SAVE DRAWDOWN FOR ALL LAYERS
    SAVE BUDGET
    PRINT BUDGET
 UBUDSV SAVING "         STORAGE" ON UNIT    50 AT TIME STEP     2, STRESS PERIOD      2
 UBUDSV SAVING "   CONSTANT HEAD" ON UNIT    50 AT TIME STEP     2, STRESS PERIOD      2
 UBUDSV SAVING "FLOW RIGHT FACE " ON UNIT    50 AT TIME STEP     2, STRESS PERIOD      2
 UBUDSV SAVING "FLOW FRONT FACE " ON UNIT    50 AT TIME STEP     2, STRESS PERIOD      2
 UBUDSV SAVING "           WELLS" ON UNIT    50 AT TIME STEP     2, STRESS PERIOD      2
 UBUDSV SAVING "        RECHARGE" ON UNIT    50 AT TIME STEP     2, STRESS PERIOD      2

 HEAD WILL BE SAVED ON UNIT     30 AT END OF TIME STEP      2, STRESS PERIOD      2

 DRAWDOWN WILL BE SAVED ON UNIT     31 AT END OF TIME STEP      2, STRESS PERIOD      2
1
  VOLUMETRIC BUDGET FOR ENTIRE MODEL AT END OF TIME STEP     2 IN STRESS PERIOD     2
  ------------------------------------------------------------------------------

     CUMULATIVE VOLUMES      L**3       RATES FOR THIS TIME STEP      L**3/T
     ------------------                 ------------------------

           IN:                                      IN:
           ---                                      ---
             STORAGE =       18418.8242               STORAGE =        4440.1250
       CONSTANT HEAD =           0.0000         CONSTANT HEAD =           0.0000
               WELLS =           0.0000                 WELLS =           0.0000
            RECHARGE =      223905.7656              RECHARGE =       42750.0000

            TOTAL IN =      242324.5938              TOTAL IN =       47190.1250

          OUT:                                     OUT:
          ----                                     ----
             STORAGE =           0.0000               STORAGE =           0.0000
       CONSTANT HEAD =      242035.9531         CONSTANT HEAD =       47117.1406
               WELLS =           0.0000                 WELLS =           0.0000
            RECHARGE =           0.0000              RECHARGE =           0.0000

           TOTAL OUT =      242035.9531             TOTAL OUT =       47117.1406

            IN - OUT =         288.6406              IN - OUT =          72.9844

 PERCENT DISCREPANCY =           0.12     PERCENT DISCREPANCY =           0.15






          TIME SUMMARY AT END OF TIME STEP      2 IN STRESS PERIOD      2
                    SECONDS     MINUTES      HOURS       DAYS        YEARS
                    -----------------------------------------------------------
   TIME STEP LENGTH 1.94804E+05  3246.7      54.112      2.2547     6.17295E-03
 STRESS PERIOD TIME 3.57140E+05  5952.3      99.205      4.1336     1.13171E-02
         TOTAL TIME 4.43540E+05  7392.3      123.21      5.1336     1.40549E-02
1
 
 SOLVING FOR HEAD 
     2 CALLS TO PCG ROUTINE FOR TIME STEP   3 IN STRESS PERIOD    2
     3 TOTAL ITERATIONS

 OUTPUT CONTROL FOR STRESS PERIOD      2   TIME STEP      3
    SAVE HEAD FOR ALL LAYERS
    SAVE DRAWDOWN FOR ALL LAYERS
    SAVE BUDGET
    PRINT BUDGET
 UBUDSV SAVING "         STORAGE" ON UNIT    50 AT TIME STEP     3, STRESS PERIOD      2
 UBUDSV SAVING "   CONSTANT HEAD" ON UNIT    50 AT TIME STEP     3, STRESS PERIOD      2
 UBUDSV SAVING "FLOW RIGHT FACE " ON UNIT    50 AT TIME STEP     3, STRESS PERIOD      2
 UBUDSV SAVING "FLOW FRONT FACE " ON UNIT    50 AT TIME STEP     3, STRESS PERIOD      2
 UBUDSV SAVING "           WELLS" ON UNIT    50 AT TIME STEP     3, STRESS PERIOD      2
 UBUDSV SAVING "        RECHARGE" ON UNIT    50 AT TIME STEP     3, STRESS PERIOD      2

 HEAD WILL BE SAVED ON UNIT     30 AT END OF TIME STEP      3, STRESS PERIOD      2

 DRAWDOWN WILL BE SAVED ON UNIT     31 AT END OF TIME STEP      3, STRESS PERIOD      2
1
  VOLUMETRIC BUDGET FOR ENTIRE MODEL AT END OF TIME STEP     3 IN STRESS PERIOD     2
  ------------------------------------------------------------------------------

     CUMULATIVE VOLUMES      L**3       RATES FOR THIS TIME STEP      L**3/T
     ------------------                 ------------------------

           IN:                                      IN:
           ---                                      ---
             STORAGE =       30144.7441               STORAGE =        4333.9375
       CONSTANT HEAD =           0.0000         CONSTANT HEAD =           0.0000
               WELLS =           0.0000                 WELLS =           0.0000
            RECHARGE =      339570.3438              RECHARGE =       42750.0000

            TOTAL IN =      369715.0938              TOTAL IN =       47083.9375

          OUT:                                     OUT:
          ----                                     ----
             STORAGE =           0.0000               STORAGE =           0.0000
       CONSTANT HEAD =      369395.4688         CONSTANT HEAD =       47072.4805
               WELLS =           0.0000                 WELLS =           0.0000
            RECHARGE =           0.0000              RECHARGE =           0.0000

           TOTAL OUT =      369395.4688             TOTAL OUT =       47072.4805

            IN - OUT =         319.6250              IN - OUT =          11.4570

 PERCENT DISCREPANCY =           0.09     PERCENT DISCREPANCY =           0.02






          TIME SUMMARY AT END OF TIME STEP      3 IN STRESS PERIOD      2
                    SECONDS     MINUTES      HOURS       DAYS        YEARS
                    -----------------------------------------------------------
   TIME STEP LENGTH 2.33764E+05  3896.1      64.935      2.7056     7.40754E-03
 STRESS PERIOD TIME 5.90904E+05  9848.4      164.14      6.8392     1.87246E-02
         TOTAL TIME 6.77304E+05  11288.      188.14      7.8392     2.14625E-02
1
 
 SOLVING FOR HEAD 
     2 CALLS TO PCG ROUTINE FOR TIME STEP   4 IN STRESS PERIOD    2
     3 TOTAL ITERATIONS

 OUTPUT CONTROL FOR STRESS PERIOD      2   TIME STEP      4
    SAVE HEAD FOR ALL LAYERS
    SAVE DRAWDOWN FOR ALL LAYERS
    SAVE BUDGET
    PRINT BUDGET
 UBUDSV SAVING "         STORAGE" ON UNIT    50 AT TIME STEP     4, STRESS PERIOD      2
 UBUDSV SAVING "   CONSTANT HEAD" ON UNIT    50 AT TIME STEP     4, STRESS PERIOD      2
 UBUDSV SAVING "FLOW RIGHT FACE " ON UNIT    50 AT TIME STEP     4, STRESS PERIOD      2
 UBUDSV SAVING "FLOW FRONT FACE " ON UNIT    50 AT TIME STEP     4, STRESS PERIOD      2
 UBUDSV SAVING "           WELLS" ON UNIT    50 AT TIME STEP     4, STRESS PERIOD      2
 UBUDSV SAVING "        RECHARGE" ON UNIT    50 AT TIME STEP     4, STRESS PERIOD      2

 HEAD WILL BE SAVED ON UNIT     30 AT END OF TIME STEP      4, STRESS PERIOD      2

 DRAWDOWN WILL BE SAVED ON UNIT     31 AT END OF TIME STEP      4, STRESS PERIOD      2
1
  VOLUMETRIC BUDGET FOR ENTIRE MODEL AT END OF TIME STEP     4 IN STRESS PERIOD     2
  ------------------------------------------------------------------------------

     CUMULATIVE VOLUMES      L**3       RATES FOR THIS TIME STEP      L**3/T
     ------------------                 ------------------------

           IN:                                      IN:
           ---                                      ---
             STORAGE =       44062.8477               STORAGE =        4286.8125
       CONSTANT HEAD =           0.0000         CONSTANT HEAD =           0.0000
               WELLS =           0.0000                 WELLS =           0.0000
            RECHARGE =      478367.8438              RECHARGE =       42750.0000

            TOTAL IN =      522430.6875              TOTAL IN =       47036.8125

          OUT:                                     OUT:
          ----                                     ----
             STORAGE =           0.0000               STORAGE =           0.0000
       CONSTANT HEAD =      522063.6250         CONSTANT HEAD =       47022.1914
               WELLS =           0.0000                 WELLS =           0.0000
            RECHARGE =           0.0000              RECHARGE =           0.0000

           TOTAL OUT =      522063.6250             TOTAL OUT =       47022.1914

            IN - OUT =         367.0625              IN - OUT =          14.6211

 PERCENT DISCREPANCY =           0.07     PERCENT DISCREPANCY =           0.03






          TIME SUMMARY AT END OF TIME STEP      4 IN STRESS PERIOD      2
                    SECONDS     MINUTES      HOURS       DAYS        YEARS
                    -----------------------------------------------------------
   TIME STEP LENGTH 2.80517E+05  4675.3      77.921      3.2467     8.88905E-03
 STRESS PERIOD TIME 8.71421E+05  14524.      242.06      10.086     2.76137E-02
         TOTAL TIME 9.57821E+05  15964.      266.06      11.086     3.03515E-02
1
 
 SOLVING FOR HEAD 
     2 CALLS TO PCG ROUTINE FOR TIME STEP   5 IN STRESS PERIOD    2
     3 TOTAL ITERATIONS

 MAXIMUM HEAD CHANGE FOR EACH ITERATION (1 INDICATES THE FIRST INNER ITERATION):

    HEAD CHANGE    HEAD CHANGE    HEAD CHANGE    HEAD CHANGE    HEAD CHANGE 
   LAYER,ROW,COL  LAYER,ROW,COL  LAYER,ROW,COL  LAYER,ROW,COL  LAYER,ROW,COL
 ---------------------------------------------------------------------------
  1 -0.4061E-02  0  0.3510E-04  1 -0.1965E-04
   (  1,  7,  6)  (  1, 20,  9)  (  1, 20,  5)

 MAXIMUM RESIDUAL FOR EACH ITERATION (1 INDICATES THE FIRST INNER ITERATION):

    RESIDUAL       RESIDUAL       RESIDUAL       RESIDUAL       RESIDUAL    
   LAYER,ROW,COL  LAYER,ROW,COL  LAYER,ROW,COL  LAYER,ROW,COL  LAYER,ROW,COL
 ---------------------------------------------------------------------------
  1 -0.2988      0  0.3353E-02  1 -0.2848E-02
   (  1, 20,  9)  (  1, 19,  2)  (  1, 20,  2)



 OUTPUT CONTROL FOR STRESS PERIOD      2   TIME STEP      5
    SAVE HEAD FOR ALL LAYERS
    SAVE DRAWDOWN FOR ALL LAYERS
    SAVE BUDGET
    PRINT BUDGET
 UBUDSV SAVING "         STORAGE" ON UNIT    50 AT TIME STEP     5, STRESS PERIOD      2
 UBUDSV SAVING "   CONSTANT HEAD" ON UNIT    50 AT TIME STEP     5, STRESS PERIOD      2
 UBUDSV SAVING "FLOW RIGHT FACE " ON UNIT    50 AT TIME STEP     5, STRESS PERIOD      2
 UBUDSV SAVING "FLOW FRONT FACE " ON UNIT    50 AT TIME STEP     5, STRESS PERIOD      2
 UBUDSV SAVING "           WELLS" ON UNIT    50 AT TIME STEP     5, STRESS PERIOD      2
 UBUDSV SAVING "        RECHARGE" ON UNIT    50 AT TIME STEP     5, STRESS PERIOD      2

 HEAD WILL BE SAVED ON UNIT     30 AT END OF TIME STEP      5, STRESS PERIOD      2

 DRAWDOWN WILL BE SAVED ON UNIT     31 AT END OF TIME STEP      5, STRESS PERIOD      2
1
  VOLUMETRIC BUDGET FOR ENTIRE MODEL AT END OF TIME STEP     5 IN STRESS PERIOD     2
  ------------------------------------------------------------------------------

     CUMULATIVE VOLUMES      L**3       RATES FOR THIS TIME STEP      L**3/T
     ------------------                 ------------------------

           IN:                                      IN:
           ---                                      ---
             STORAGE =       60406.8633               STORAGE =        4195.0000
       CONSTANT HEAD =           0.0000         CONSTANT HEAD =           0.0000
               WELLS =           0.0000                 WELLS =           0.0000
            RECHARGE =      644924.8750              RECHARGE =       42750.0000

            TOTAL IN =      705331.7500              TOTAL IN =       46945.0000

          OUT:                                     OUT:
          ----                                     ----
             STORAGE =           0.0000               STORAGE =           0.0000
       CONSTANT HEAD =      705054.6250         CONSTANT HEAD =       46968.1016
               WELLS =           0.0000                 WELLS =           0.0000
            RECHARGE =           0.0000              RECHARGE =           0.0000

           TOTAL OUT =      705054.6250             TOTAL OUT =       46968.1016

            IN - OUT =         277.1250              IN - OUT =         -23.1016

 PERCENT DISCREPANCY =           0.04     PERCENT DISCREPANCY =          -0.05






          TIME SUMMARY AT END OF TIME STEP      5 IN STRESS PERIOD      2
                    SECONDS     MINUTES      HOURS       DAYS        YEARS
                    -----------------------------------------------------------
   TIME STEP LENGTH 3.36620E+05  5610.3      93.506      3.8961     1.06669E-02
 STRESS PERIOD TIME 1.20804E+06  20134.      335.57      13.982     3.82805E-02
         TOTAL TIME 1.29444E+06  21574.      359.57      14.982     4.10184E-02
1
 
 SOLVING FOR HEAD 
     2 CALLS TO PCG ROUTINE FOR TIME STEP   6 IN STRESS PERIOD    2
     3 TOTAL ITERATIONS

 OUTPUT CONTROL FOR STRESS PERIOD      2   TIME STEP      6
    SAVE HEAD FOR ALL LAYERS
    SAVE DRAWDOWN FOR ALL LAYERS
    SAVE BUDGET
    PRINT BUDGET
 UBUDSV SAVING "         STORAGE" ON UNIT    50 AT TIME STEP     6, STRESS PERIOD      2
 UBUDSV SAVING "   CONSTANT HEAD" ON UNIT    50 AT TIME STEP     6, STRESS PERIOD      2
 UBUDSV SAVING "FLOW RIGHT FACE " ON UNIT    50 AT TIME STEP     6, STRESS PERIOD      2
 UBUDSV SAVING "FLOW FRONT FACE " ON UNIT    50 AT TIME STEP     6, STRESS PERIOD      2
 UBUDSV SAVING "           WELLS" ON UNIT    50 AT TIME STEP     6, STRESS PERIOD      2
 UBUDSV SAVING "        RECHARGE" ON UNIT    50 AT TIME STEP     6, STRESS PERIOD      2

 HEAD WILL BE SAVED ON UNIT     30 AT END OF TIME STEP      6, STRESS PERIOD      2

 DRAWDOWN WILL BE SAVED ON UNIT     31 AT END OF TIME STEP      6, STRESS PERIOD      2
1
  VOLUMETRIC BUDGET FOR ENTIRE MODEL AT END OF TIME STEP     6 IN STRESS PERIOD     2
  ------------------------------------------------------------------------------

     CUMULATIVE VOLUMES      L**3       RATES FOR THIS TIME STEP      L**3/T
     ------------------                 ------------------------

           IN:                                      IN:
           ---                                      ---
             STORAGE =       79758.0156               STORAGE =        4139.0312
       CONSTANT HEAD =           0.0000         CONSTANT HEAD =           0.0000
               WELLS =           0.0000                 WELLS =           0.0000
            RECHARGE =      844793.3125              RECHARGE =       42750.0000

            TOTAL IN =      924551.3125              TOTAL IN =       46889.0312

          OUT:                                     OUT:
          ----                                     ----
             STORAGE =           0.0000               STORAGE =           0.0000
       CONSTANT HEAD =      924363.8750         CONSTANT HEAD =       46908.2070
               WELLS =           0.0000                 WELLS =           0.0000
            RECHARGE =           0.0000              RECHARGE =           0.0000

           TOTAL OUT =      924363.8750             TOTAL OUT =       46908.2070

            IN - OUT =         187.4375              IN - OUT =         -19.1758

 PERCENT DISCREPANCY =           0.02     PERCENT DISCREPANCY =          -0.04






          TIME SUMMARY AT END OF TIME STEP      6 IN STRESS PERIOD      2
                    SECONDS     MINUTES      HOURS       DAYS        YEARS
                    -----------------------------------------------------------
   TIME STEP LENGTH 4.03945E+05  6732.4      112.21      4.6753     1.28002E-02
 STRESS PERIOD TIME 1.61199E+06  26866.      447.77      18.657     5.10808E-02
         TOTAL TIME 1.69839E+06  28306.      471.77      19.657     5.38186E-02
1
 
 SOLVING FOR HEAD 
     2 CALLS TO PCG ROUTINE FOR TIME STEP   7 IN STRESS PERIOD    2
     3 TOTAL ITERATIONS

 OUTPUT CONTROL FOR STRESS PERIOD      2   TIME STEP      7
    SAVE HEAD FOR ALL LAYERS
    SAVE DRAWDOWN FOR ALL LAYERS
    SAVE BUDGET
    PRINT BUDGET
 UBUDSV SAVING "         STORAGE" ON UNIT    50 AT TIME STEP     7, STRESS PERIOD      2
 UBUDSV SAVING "   CONSTANT HEAD" ON UNIT    50 AT TIME STEP     7, STRESS PERIOD      2
 UBUDSV SAVING "FLOW RIGHT FACE " ON UNIT    50 AT TIME STEP     7, STRESS PERIOD      2
 UBUDSV SAVING "FLOW FRONT FACE " ON UNIT    50 AT TIME STEP     7, STRESS PERIOD      2
 UBUDSV SAVING "           WELLS" ON UNIT    50 AT TIME STEP     7, STRESS PERIOD      2
 UBUDSV SAVING "        RECHARGE" ON UNIT    50 AT TIME STEP     7, STRESS PERIOD      2

 HEAD WILL BE SAVED ON UNIT     30 AT END OF TIME STEP      7, STRESS PERIOD      2

 DRAWDOWN WILL BE SAVED ON UNIT     31 AT END OF TIME STEP      7, STRESS PERIOD      2
1
  VOLUMETRIC BUDGET FOR ENTIRE MODEL AT END OF TIME STEP     7 IN STRESS PERIOD     2
  ------------------------------------------------------------------------------

     CUMULATIVE VOLUMES      L**3       RATES FOR THIS TIME STEP      L**3/T
     ------------------                 ------------------------

           IN:                                      IN:
           ---                                      ---
             STORAGE =      102464.2969               STORAGE =        4047.2188
       CONSTANT HEAD =           0.0000         CONSTANT HEAD =           0.0000
               WELLS =           0.0000                 WELLS =           0.0000
            RECHARGE =     1084635.5000              RECHARGE =       42750.0000

            TOTAL IN =     1187099.7500              TOTAL IN =       46797.2188

          OUT:                                     OUT:
          ----                                     ----
             STORAGE =           0.0000               STORAGE =           0.0000
       CONSTANT HEAD =     1187170.3750         CONSTANT HEAD =       46843.2266
               WELLS =           0.0000                 WELLS =           0.0000
            RECHARGE =           0.0000              RECHARGE =           0.0000

           TOTAL OUT =     1187170.3750             TOTAL OUT =       46843.2266

            IN - OUT =         -70.6250              IN - OUT =         -46.0078

 PERCENT DISCREPANCY =          -0.01     PERCENT DISCREPANCY =          -0.10






          TIME SUMMARY AT END OF TIME STEP      7 IN STRESS PERIOD      2
                    SECONDS     MINUTES      HOURS       DAYS        YEARS
                    -----------------------------------------------------------
   TIME STEP LENGTH 4.84734E+05  8078.9      134.65      5.6103     1.53603E-02
 STRESS PERIOD TIME 2.09672E+06  34945.      582.42      24.268     6.64410E-02
         TOTAL TIME 2.18312E+06  36385.      606.42      25.268     6.91789E-02
1
 
 SOLVING FOR HEAD 
     2 CALLS TO PCG ROUTINE FOR TIME STEP   8 IN STRESS PERIOD    2
     3 TOTAL ITERATIONS

 MAXIMUM HEAD CHANGE FOR EACH ITERATION (1 INDICATES THE FIRST INNER ITERATION):

    HEAD CHANGE    HEAD CHANGE    HEAD CHANGE    HEAD CHANGE    HEAD CHANGE 
   LAYER,ROW,COL  LAYER,ROW,COL  LAYER,ROW,COL  LAYER,ROW,COL  LAYER,ROW,COL
 ---------------------------------------------------------------------------
  1 -0.6913E-02  0  0.9854E-04  1 -0.4596E-04
   (  1, 13,  9)  (  1, 20,  9)  (  1, 20,  3)

 MAXIMUM RESIDUAL FOR EACH ITERATION (1 INDICATES THE FIRST INNER ITERATION):

    RESIDUAL       RESIDUAL       RESIDUAL       RESIDUAL       RESIDUAL    
   LAYER,ROW,COL  LAYER,ROW,COL  LAYER,ROW,COL  LAYER,ROW,COL  LAYER,ROW,COL
 ---------------------------------------------------------------------------
  1 -0.5610      0  0.1522E-01  1 -0.8997E-02
   (  1, 20,  9)  (  1, 19,  2)  (  1, 20,  2)



 OUTPUT CONTROL FOR STRESS PERIOD      2   TIME STEP      8
    SAVE HEAD FOR ALL LAYERS
    SAVE DRAWDOWN FOR ALL LAYERS
    SAVE BUDGET
    PRINT BUDGET
 UBUDSV SAVING "         STORAGE" ON UNIT    50 AT TIME STEP     8, STRESS PERIOD      2
 UBUDSV SAVING "   CONSTANT HEAD" ON UNIT    50 AT TIME STEP     8, STRESS PERIOD      2
 UBUDSV SAVING "FLOW RIGHT FACE " ON UNIT    50 AT TIME STEP     8, STRESS PERIOD      2
 UBUDSV SAVING "FLOW FRONT FACE " ON UNIT    50 AT TIME STEP     8, STRESS PERIOD      2
 UBUDSV SAVING "           WELLS" ON UNIT    50 AT TIME STEP     8, STRESS PERIOD      2
 UBUDSV SAVING "        RECHARGE" ON UNIT    50 AT TIME STEP     8, STRESS PERIOD      2

 HEAD WILL BE SAVED ON UNIT     30 AT END OF TIME STEP      8, STRESS PERIOD      2

 DRAWDOWN WILL BE SAVED ON UNIT     31 AT END OF TIME STEP      8, STRESS PERIOD      2
1
  VOLUMETRIC BUDGET FOR ENTIRE MODEL AT END OF TIME STEP     8 IN STRESS PERIOD     2
  ------------------------------------------------------------------------------

     CUMULATIVE VOLUMES      L**3       RATES FOR THIS TIME STEP      L**3/T
     ------------------                 ------------------------

           IN:                                      IN:
           ---                                      ---
             STORAGE =      129416.6641               STORAGE =        4003.3750
       CONSTANT HEAD =           0.0000         CONSTANT HEAD =           0.0000
               WELLS =           0.0000                 WELLS =           0.0000
            RECHARGE =     1372446.0000              RECHARGE =       42750.0000

            TOTAL IN =     1501862.6250              TOTAL IN =       46753.3750

          OUT:                                     OUT:
          ----                                     ----
             STORAGE =           0.0000               STORAGE =           0.0000
       CONSTANT HEAD =     1502055.8750         CONSTANT HEAD =       46771.5859
               WELLS =           0.0000                 WELLS =           0.0000
            RECHARGE =           0.0000              RECHARGE =           0.0000

           TOTAL OUT =     1502055.8750             TOTAL OUT =       46771.5859

            IN - OUT =        -193.2500              IN - OUT =         -18.2109

 PERCENT DISCREPANCY =          -0.01     PERCENT DISCREPANCY =          -0.04






          TIME SUMMARY AT END OF TIME STEP      8 IN STRESS PERIOD      2
                    SECONDS     MINUTES      HOURS       DAYS        YEARS
                    -----------------------------------------------------------
   TIME STEP LENGTH 5.81680E+05  9694.7      161.58      6.7324     1.84323E-02
 STRESS PERIOD TIME 2.67840E+06  44640.      744.00      31.000     8.48734E-02
         TOTAL TIME 2.76480E+06  46080.      768.00      32.000     8.76112E-02
1
1
                            STRESS PERIOD NO.      3, LENGTH =   28.00000    
                            -----------------------------------------------

                              NUMBER OF TIME STEPS =     8

                               MULTIPLIER FOR DELT =     1.200

                            INITIAL TIME STEP SIZE =   1.697063    

 WELL NO.  LAYER   ROW   COL   STRESS RATE         IFACE           
 ------------------------------------------------------------------
      1      1      5      5       0.000           0.000    
      2      1     11      5       0.000           0.000    
      3      1      5      5       0.000           0.000    

      3 WELLS



                           RECHARGE
 READING ON UNIT    18 WITH FORMAT: (10e12.4)           
 
 SOLVING FOR HEAD 


     2 CALLS TO PCG ROUTINE FOR TIME STEP   1 IN STRESS PERIOD    3
     3 TOTAL ITERATIONS

 OUTPUT CONTROL FOR STRESS PERIOD      3   TIME STEP      1
    SAVE HEAD FOR ALL LAYERS
    SAVE DRAWDOWN FOR ALL LAYERS
    SAVE BUDGET
    PRINT BUDGET
 UBUDSV SAVING "         STORAGE" ON UNIT    50 AT TIME STEP     1, STRESS PERIOD      3
 UBUDSV SAVING "   CONSTANT HEAD" ON UNIT    50 AT TIME STEP     1, STRESS PERIOD      3
 UBUDSV SAVING "FLOW RIGHT FACE " ON UNIT    50 AT TIME STEP     1, STRESS PERIOD      3
 UBUDSV SAVING "FLOW FRONT FACE " ON UNIT    50 AT TIME STEP     1, STRESS PERIOD      3
 UBUDSV SAVING "           WELLS" ON UNIT    50 AT TIME STEP     1, STRESS PERIOD      3
 UBUDSV SAVING "        RECHARGE" ON UNIT    50 AT TIME STEP     1, STRESS PERIOD      3

 HEAD WILL BE SAVED ON UNIT     30 AT END OF TIME STEP      1, STRESS PERIOD      3

 DRAWDOWN WILL BE SAVED ON UNIT     31 AT END OF TIME STEP      1, STRESS PERIOD      3
1
  VOLUMETRIC BUDGET FOR ENTIRE MODEL AT END OF TIME STEP     1 IN STRESS PERIOD     3
  ------------------------------------------------------------------------------

     CUMULATIVE VOLUMES      L**3       RATES FOR THIS TIME STEP      L**3/T
     ------------------                 ------------------------

           IN:                                      IN:
           ---                                      ---
             STORAGE =      129416.6641               STORAGE =           0.0000
       CONSTANT HEAD =           0.0000         CONSTANT HEAD =           0.0000
               WELLS =           0.0000                 WELLS =           0.0000
            RECHARGE =     1590094.3750              RECHARGE =      128250.0000

            TOTAL IN =     1719511.0000              TOTAL IN =      128250.0000

          OUT:                                     OUT:
          ----                                     ----
             STORAGE =      137192.3125               STORAGE =       80841.0000
       CONSTANT HEAD =     1582484.0000         CONSTANT HEAD =       47392.5312
               WELLS =           0.0000                 WELLS =           0.0000
            RECHARGE =           0.0000              RECHARGE =           0.0000

           TOTAL OUT =     1719676.2500             TOTAL OUT =      128233.5312

            IN - OUT =        -165.2500              IN - OUT =          16.4688

 PERCENT DISCREPANCY =          -0.01     PERCENT DISCREPANCY =           0.01






          TIME SUMMARY AT END OF TIME STEP      1 IN STRESS PERIOD      3
                    SECONDS     MINUTES      HOURS       DAYS        YEARS
                    -----------------------------------------------------------
   TIME STEP LENGTH 1.46626E+05  2443.8      40.730      1.6971     4.64631E-03
 STRESS PERIOD TIME 1.46626E+05  2443.8      40.730      1.6971     4.64631E-03
         TOTAL TIME 2.91143E+06  48524.      808.73      33.697     9.22575E-02
1
 
 SOLVING FOR HEAD 
     2 CALLS TO PCG ROUTINE FOR TIME STEP   2 IN STRESS PERIOD    3
     3 TOTAL ITERATIONS

 OUTPUT CONTROL FOR STRESS PERIOD      3   TIME STEP      2
    SAVE HEAD FOR ALL LAYERS
    SAVE DRAWDOWN FOR ALL LAYERS
    SAVE BUDGET
    PRINT BUDGET
 UBUDSV SAVING "         STORAGE" ON UNIT    50 AT TIME STEP     2, STRESS PERIOD      3
 UBUDSV SAVING "   CONSTANT HEAD" ON UNIT    50 AT TIME STEP     2, STRESS PERIOD      3
 UBUDSV SAVING "FLOW RIGHT FACE " ON UNIT    50 AT TIME STEP     2, STRESS PERIOD      3
 UBUDSV SAVING "FLOW FRONT FACE " ON UNIT    50 AT TIME STEP     2, STRESS PERIOD      3
 UBUDSV SAVING "           WELLS" ON UNIT    50 AT TIME STEP     2, STRESS PERIOD      3
 UBUDSV SAVING "        RECHARGE" ON UNIT    50 AT TIME STEP     2, STRESS PERIOD      3

 HEAD WILL BE SAVED ON UNIT     30 AT END OF TIME STEP      2, STRESS PERIOD      3

 DRAWDOWN WILL BE SAVED ON UNIT     31 AT END OF TIME STEP      2, STRESS PERIOD      3
1
  VOLUMETRIC BUDGET FOR ENTIRE MODEL AT END OF TIME STEP     2 IN STRESS PERIOD     3
  ------------------------------------------------------------------------------

     CUMULATIVE VOLUMES      L**3       RATES FOR THIS TIME STEP      L**3/T
     ------------------                 ------------------------

           IN:                                      IN:
           ---                                      ---
             STORAGE =      129416.6641               STORAGE =           0.0000
       CONSTANT HEAD =           0.0000         CONSTANT HEAD =           0.0000
               WELLS =           0.0000                 WELLS =           0.0000
            RECHARGE =     1851272.5000              RECHARGE =      128250.0000

            TOTAL IN =     1980689.1250              TOTAL IN =      128250.0000

          OUT:                                     OUT:
          ----                                     ----
             STORAGE =      300356.8125               STORAGE =       80121.0000
       CONSTANT HEAD =     1680417.0000         CONSTANT HEAD =       48089.4297
               WELLS =           0.0000                 WELLS =           0.0000
            RECHARGE =           0.0000              RECHARGE =           0.0000

           TOTAL OUT =     1980773.7500             TOTAL OUT =      128210.4297

            IN - OUT =         -84.6250              IN - OUT =          39.5703

 PERCENT DISCREPANCY =          -0.00     PERCENT DISCREPANCY =           0.03






          TIME SUMMARY AT END OF TIME STEP      2 IN STRESS PERIOD      3
                    SECONDS     MINUTES      HOURS       DAYS        YEARS
                    -----------------------------------------------------------
   TIME STEP LENGTH 1.75952E+05  2932.5      48.875      2.0365     5.57557E-03
 STRESS PERIOD TIME 3.22578E+05  5376.3      89.605      3.7335     1.02219E-02
         TOTAL TIME 3.08738E+06  51456.      857.60      35.734     9.78331E-02
1
 
 SOLVING FOR HEAD 
     2 CALLS TO PCG ROUTINE FOR TIME STEP   3 IN STRESS PERIOD    3
     3 TOTAL ITERATIONS

 OUTPUT CONTROL FOR STRESS PERIOD      3   TIME STEP      3
    SAVE HEAD FOR ALL LAYERS
    SAVE DRAWDOWN FOR ALL LAYERS
    SAVE BUDGET
    PRINT BUDGET
 UBUDSV SAVING "         STORAGE" ON UNIT    50 AT TIME STEP     3, STRESS PERIOD      3
 UBUDSV SAVING "   CONSTANT HEAD" ON UNIT    50 AT TIME STEP     3, STRESS PERIOD      3
 UBUDSV SAVING "FLOW RIGHT FACE " ON UNIT    50 AT TIME STEP     3, STRESS PERIOD      3
 UBUDSV SAVING "FLOW FRONT FACE " ON UNIT    50 AT TIME STEP     3, STRESS PERIOD      3
 UBUDSV SAVING "           WELLS" ON UNIT    50 AT TIME STEP     3, STRESS PERIOD      3
 UBUDSV SAVING "        RECHARGE" ON UNIT    50 AT TIME STEP     3, STRESS PERIOD      3

 HEAD WILL BE SAVED ON UNIT     30 AT END OF TIME STEP      3, STRESS PERIOD      3

 DRAWDOWN WILL BE SAVED ON UNIT     31 AT END OF TIME STEP      3, STRESS PERIOD      3
1
  VOLUMETRIC BUDGET FOR ENTIRE MODEL AT END OF TIME STEP     3 IN STRESS PERIOD     3
  ------------------------------------------------------------------------------

     CUMULATIVE VOLUMES      L**3       RATES FOR THIS TIME STEP      L**3/T
     ------------------                 ------------------------

           IN:                                      IN:
           ---                                      ---
             STORAGE =      129416.6641               STORAGE =           0.0000
       CONSTANT HEAD =           0.0000         CONSTANT HEAD =           0.0000
               WELLS =           0.0000                 WELLS =           0.0000
            RECHARGE =     2164686.2500              RECHARGE =      128250.0000

            TOTAL IN =     2294103.0000              TOTAL IN =      128250.0000

          OUT:                                     OUT:
          ----                                     ----
             STORAGE =      494426.0000               STORAGE =       79413.8125
       CONSTANT HEAD =     1799835.2500         CONSTANT HEAD =       48866.3594
               WELLS =           0.0000                 WELLS =           0.0000
            RECHARGE =           0.0000              RECHARGE =           0.0000

           TOTAL OUT =     2294261.2500             TOTAL OUT =      128280.1719

            IN - OUT =        -158.2500              IN - OUT =         -30.1719

 PERCENT DISCREPANCY =          -0.01     PERCENT DISCREPANCY =          -0.02






          TIME SUMMARY AT END OF TIME STEP      3 IN STRESS PERIOD      3
                    SECONDS     MINUTES      HOURS       DAYS        YEARS
                    -----------------------------------------------------------
   TIME STEP LENGTH 2.11142E+05  3519.0      58.651      2.4438     6.69068E-03
 STRESS PERIOD TIME 5.33720E+05  8895.3      148.26      6.1773     1.69126E-02
         TOTAL TIME 3.29852E+06  54975.      916.26      38.177     0.10452    
1
 
 SOLVING FOR HEAD 
     2 CALLS TO PCG ROUTINE FOR TIME STEP   4 IN STRESS PERIOD    3
     3 TOTAL ITERATIONS

 OUTPUT CONTROL FOR STRESS PERIOD      3   TIME STEP      4
    SAVE HEAD FOR ALL LAYERS
    SAVE DRAWDOWN FOR ALL LAYERS
    SAVE BUDGET
    PRINT BUDGET
 UBUDSV SAVING "         STORAGE" ON UNIT    50 AT TIME STEP     4, STRESS PERIOD      3
 UBUDSV SAVING "   CONSTANT HEAD" ON UNIT    50 AT TIME STEP     4, STRESS PERIOD      3
 UBUDSV SAVING "FLOW RIGHT FACE " ON UNIT    50 AT TIME STEP     4, STRESS PERIOD      3
 UBUDSV SAVING "FLOW FRONT FACE " ON UNIT    50 AT TIME STEP     4, STRESS PERIOD      3
 UBUDSV SAVING "           WELLS" ON UNIT    50 AT TIME STEP     4, STRESS PERIOD      3
 UBUDSV SAVING "        RECHARGE" ON UNIT    50 AT TIME STEP     4, STRESS PERIOD      3

 HEAD WILL BE SAVED ON UNIT     30 AT END OF TIME STEP      4, STRESS PERIOD      3

 DRAWDOWN WILL BE SAVED ON UNIT     31 AT END OF TIME STEP      4, STRESS PERIOD      3
1
  VOLUMETRIC BUDGET FOR ENTIRE MODEL AT END OF TIME STEP     4 IN STRESS PERIOD     3
  ------------------------------------------------------------------------------

     CUMULATIVE VOLUMES      L**3       RATES FOR THIS TIME STEP      L**3/T
     ------------------                 ------------------------

           IN:                                      IN:
           ---                                      ---
             STORAGE =      129416.6641               STORAGE =           0.0000
       CONSTANT HEAD =           0.0000         CONSTANT HEAD =           0.0000
               WELLS =           0.0000                 WELLS =           0.0000
            RECHARGE =     2540782.7500              RECHARGE =      128250.0000

            TOTAL IN =     2670199.5000              TOTAL IN =      128250.0000

          OUT:                                     OUT:
          ----                                     ----
             STORAGE =      724853.7500               STORAGE =       78576.5625
       CONSTANT HEAD =     1945663.0000         CONSTANT HEAD =       49727.7070
               WELLS =           0.0000                 WELLS =           0.0000
            RECHARGE =           0.0000              RECHARGE =           0.0000

           TOTAL OUT =     2670516.7500             TOTAL OUT =      128304.2656

            IN - OUT =        -317.2500              IN - OUT =         -54.2656

 PERCENT DISCREPANCY =          -0.01     PERCENT DISCREPANCY =          -0.04






          TIME SUMMARY AT END OF TIME STEP      4 IN STRESS PERIOD      3
                    SECONDS     MINUTES      HOURS       DAYS        YEARS
                    -----------------------------------------------------------
   TIME STEP LENGTH 2.53370E+05  4222.8      70.381      2.9325     8.02882E-03
 STRESS PERIOD TIME 7.87090E+05  13118.      218.64      9.1098     2.49414E-02
         TOTAL TIME 3.55189E+06  59198.      986.64      41.110     0.11255    
1
 
 SOLVING FOR HEAD 
     2 CALLS TO PCG ROUTINE FOR TIME STEP   5 IN STRESS PERIOD    3
     3 TOTAL ITERATIONS

 MAXIMUM HEAD CHANGE FOR EACH ITERATION (1 INDICATES THE FIRST INNER ITERATION):

    HEAD CHANGE    HEAD CHANGE    HEAD CHANGE    HEAD CHANGE    HEAD CHANGE 
   LAYER,ROW,COL  LAYER,ROW,COL  LAYER,ROW,COL  LAYER,ROW,COL  LAYER,ROW,COL
 ---------------------------------------------------------------------------
  1  0.6658E-01  0 -0.5346E-03  1  0.2983E-03
   (  1, 11,  5)  (  1, 20,  9)  (  1, 20,  3)

 MAXIMUM RESIDUAL FOR EACH ITERATION (1 INDICATES THE FIRST INNER ITERATION):

    RESIDUAL       RESIDUAL       RESIDUAL       RESIDUAL       RESIDUAL    
   LAYER,ROW,COL  LAYER,ROW,COL  LAYER,ROW,COL  LAYER,ROW,COL  LAYER,ROW,COL
 ---------------------------------------------------------------------------
  1   4.933      0  0.4485E-01  1  0.4159E-01
   (  1, 20,  9)  (  1, 19,  9)  (  1, 20,  2)



 OUTPUT CONTROL FOR STRESS PERIOD      3   TIME STEP      5
    SAVE HEAD FOR ALL LAYERS
    SAVE DRAWDOWN FOR ALL LAYERS
    SAVE BUDGET
    PRINT BUDGET
 UBUDSV SAVING "         STORAGE" ON UNIT    50 AT TIME STEP     5, STRESS PERIOD      3
 UBUDSV SAVING "   CONSTANT HEAD" ON UNIT    50 AT TIME STEP     5, STRESS PERIOD      3
 UBUDSV SAVING "FLOW RIGHT FACE " ON UNIT    50 AT TIME STEP     5, STRESS PERIOD      3
 UBUDSV SAVING "FLOW FRONT FACE " ON UNIT    50 AT TIME STEP     5, STRESS PERIOD      3
 UBUDSV SAVING "           WELLS" ON UNIT    50 AT TIME STEP     5, STRESS PERIOD      3
 UBUDSV SAVING "        RECHARGE" ON UNIT    50 AT TIME STEP     5, STRESS PERIOD      3

 HEAD WILL BE SAVED ON UNIT     30 AT END OF TIME STEP      5, STRESS PERIOD      3

 DRAWDOWN WILL BE SAVED ON UNIT     31 AT END OF TIME STEP      5, STRESS PERIOD      3
1
  VOLUMETRIC BUDGET FOR ENTIRE MODEL AT END OF TIME STEP     5 IN STRESS PERIOD     3
  ------------------------------------------------------------------------------

     CUMULATIVE VOLUMES      L**3       RATES FOR THIS TIME STEP      L**3/T
     ------------------                 ------------------------

           IN:                                      IN:
           ---                                      ---
             STORAGE =      129416.6641               STORAGE =           0.0000
       CONSTANT HEAD =           0.0000         CONSTANT HEAD =           0.0000
               WELLS =           0.0000                 WELLS =           0.0000
            RECHARGE =     2992098.5000              RECHARGE =      128250.0000

            TOTAL IN =     3121515.2500              TOTAL IN =      128250.0000

          OUT:                                     OUT:
          ----                                     ----
             STORAGE =      997913.6250               STORAGE =       77595.1875
       CONSTANT HEAD =     2124002.0000         CONSTANT HEAD =       50678.4375
               WELLS =           0.0000                 WELLS =           0.0000
            RECHARGE =           0.0000              RECHARGE =           0.0000

           TOTAL OUT =     3121915.5000             TOTAL OUT =      128273.6250

            IN - OUT =        -400.2500              IN - OUT =         -23.6250

 PERCENT DISCREPANCY =          -0.01     PERCENT DISCREPANCY =          -0.02






          TIME SUMMARY AT END OF TIME STEP      5 IN STRESS PERIOD      3
                    SECONDS     MINUTES      HOURS       DAYS        YEARS
                    -----------------------------------------------------------
   TIME STEP LENGTH 3.04044E+05  5067.4      84.457      3.5190     9.63458E-03
 STRESS PERIOD TIME 1.09113E+06  18186.      303.09      12.629     3.45760E-02
         TOTAL TIME 3.85593E+06  64266.      1071.1      44.629     0.12219    
1
 
 SOLVING FOR HEAD 
     2 CALLS TO PCG ROUTINE FOR TIME STEP   6 IN STRESS PERIOD    3
     3 TOTAL ITERATIONS

 OUTPUT CONTROL FOR STRESS PERIOD      3   TIME STEP      6
    SAVE HEAD FOR ALL LAYERS
    SAVE DRAWDOWN FOR ALL LAYERS
    SAVE BUDGET
    PRINT BUDGET
 UBUDSV SAVING "         STORAGE" ON UNIT    50 AT TIME STEP     6, STRESS PERIOD      3
 UBUDSV SAVING "   CONSTANT HEAD" ON UNIT    50 AT TIME STEP     6, STRESS PERIOD      3
 UBUDSV SAVING "FLOW RIGHT FACE " ON UNIT    50 AT TIME STEP     6, STRESS PERIOD      3
 UBUDSV SAVING "FLOW FRONT FACE " ON UNIT    50 AT TIME STEP     6, STRESS PERIOD      3
 UBUDSV SAVING "           WELLS" ON UNIT    50 AT TIME STEP     6, STRESS PERIOD      3
 UBUDSV SAVING "        RECHARGE" ON UNIT    50 AT TIME STEP     6, STRESS PERIOD      3

 HEAD WILL BE SAVED ON UNIT     30 AT END OF TIME STEP      6, STRESS PERIOD      3

 DRAWDOWN WILL BE SAVED ON UNIT     31 AT END OF TIME STEP      6, STRESS PERIOD      3
1
  VOLUMETRIC BUDGET FOR ENTIRE MODEL AT END OF TIME STEP     6 IN STRESS PERIOD     3
  ------------------------------------------------------------------------------

     CUMULATIVE VOLUMES      L**3       RATES FOR THIS TIME STEP      L**3/T
     ------------------                 ------------------------

           IN:                                      IN:
           ---                                      ---
             STORAGE =      129416.6641               STORAGE =           0.0000
       CONSTANT HEAD =           0.0000         CONSTANT HEAD =           0.0000
               WELLS =           0.0000                 WELLS =           0.0000
            RECHARGE =     3533677.2500              RECHARGE =      128250.0000

            TOTAL IN =     3663094.0000              TOTAL IN =      128250.0000

          OUT:                                     OUT:
          ----                                     ----
             STORAGE =     1321038.5000               STORAGE =       76518.4375
       CONSTANT HEAD =     2342427.5000         CONSTANT HEAD =       51724.8398
               WELLS =           0.0000                 WELLS =           0.0000
            RECHARGE =           0.0000              RECHARGE =           0.0000

           TOTAL OUT =     3663466.0000             TOTAL OUT =      128243.2812

            IN - OUT =        -372.0000              IN - OUT =           6.7188

 PERCENT DISCREPANCY =          -0.01     PERCENT DISCREPANCY =           0.01






          TIME SUMMARY AT END OF TIME STEP      6 IN STRESS PERIOD      3
                    SECONDS     MINUTES      HOURS       DAYS        YEARS
                    -----------------------------------------------------------
   TIME STEP LENGTH 3.64853E+05  6080.9      101.35      4.2228     1.15615E-02
 STRESS PERIOD TIME 1.45599E+06  24266.      404.44      16.852     4.61375E-02
         TOTAL TIME 4.22079E+06  70346.      1172.4      48.852     0.13375    
1
 
 SOLVING FOR HEAD 
     2 CALLS TO PCG ROUTINE FOR TIME STEP   7 IN STRESS PERIOD    3
     4 TOTAL ITERATIONS

 OUTPUT CONTROL FOR STRESS PERIOD      3   TIME STEP      7
    SAVE HEAD FOR ALL LAYERS
    SAVE DRAWDOWN FOR ALL LAYERS
    SAVE BUDGET
    PRINT BUDGET
 UBUDSV SAVING "         STORAGE" ON UNIT    50 AT TIME STEP     7, STRESS PERIOD      3
 UBUDSV SAVING "   CONSTANT HEAD" ON UNIT    50 AT TIME STEP     7, STRESS PERIOD      3
 UBUDSV SAVING "FLOW RIGHT FACE " ON UNIT    50 AT TIME STEP     7, STRESS PERIOD      3
 UBUDSV SAVING "FLOW FRONT FACE " ON UNIT    50 AT TIME STEP     7, STRESS PERIOD      3
 UBUDSV SAVING "           WELLS" ON UNIT    50 AT TIME STEP     7, STRESS PERIOD      3
 UBUDSV SAVING "        RECHARGE" ON UNIT    50 AT TIME STEP     7, STRESS PERIOD      3

 HEAD WILL BE SAVED ON UNIT     30 AT END OF TIME STEP      7, STRESS PERIOD      3

 DRAWDOWN WILL BE SAVED ON UNIT     31 AT END OF TIME STEP      7, STRESS PERIOD      3
1
  VOLUMETRIC BUDGET FOR ENTIRE MODEL AT END OF TIME STEP     7 IN STRESS PERIOD     3
  ------------------------------------------------------------------------------

     CUMULATIVE VOLUMES      L**3       RATES FOR THIS TIME STEP      L**3/T
     ------------------                 ------------------------

           IN:                                      IN:
           ---                                      ---
             STORAGE =      129416.6641               STORAGE =           0.0000
       CONSTANT HEAD =           0.0000         CONSTANT HEAD =           0.0000
               WELLS =           0.0000                 WELLS =           0.0000
            RECHARGE =     4183572.0000              RECHARGE =      128250.0000

            TOTAL IN =     4312988.5000              TOTAL IN =      128250.0000

          OUT:                                     OUT:
          ----                                     ----
             STORAGE =     1703083.7500               STORAGE =       75392.6875
       CONSTANT HEAD =     2610362.2500         CONSTANT HEAD =       52874.1719
               WELLS =           0.0000                 WELLS =           0.0000
            RECHARGE =           0.0000              RECHARGE =           0.0000

           TOTAL OUT =     4313446.0000             TOTAL OUT =      128266.8594

            IN - OUT =        -457.5000              IN - OUT =         -16.8594

 PERCENT DISCREPANCY =          -0.01     PERCENT DISCREPANCY =          -0.01






          TIME SUMMARY AT END OF TIME STEP      7 IN STRESS PERIOD      3
                    SECONDS     MINUTES      HOURS       DAYS        YEARS
                    -----------------------------------------------------------
   TIME STEP LENGTH 4.37824E+05  7297.1      121.62      5.0674     1.38738E-02
 STRESS PERIOD TIME 1.89381E+06  31564.      526.06      21.919     6.00113E-02
         TOTAL TIME 4.65861E+06  77644.      1294.1      53.919     0.14762    
1
 
 SOLVING FOR HEAD 
     2 CALLS TO PCG ROUTINE FOR TIME STEP   8 IN STRESS PERIOD    3
     4 TOTAL ITERATIONS

 MAXIMUM HEAD CHANGE FOR EACH ITERATION (1 INDICATES THE FIRST INNER ITERATION):

    HEAD CHANGE    HEAD CHANGE    HEAD CHANGE    HEAD CHANGE    HEAD CHANGE 
   LAYER,ROW,COL  LAYER,ROW,COL  LAYER,ROW,COL  LAYER,ROW,COL  LAYER,ROW,COL
 ---------------------------------------------------------------------------
  1  0.1143      0 -0.1517E-02  0  0.2645E-04  1  0.7150E-03
   (  1, 10,  2)  (  1, 20,  9)  (  1, 19,  2)  (  1, 20,  2)

 MAXIMUM RESIDUAL FOR EACH ITERATION (1 INDICATES THE FIRST INNER ITERATION):

    RESIDUAL       RESIDUAL       RESIDUAL       RESIDUAL       RESIDUAL    
   LAYER,ROW,COL  LAYER,ROW,COL  LAYER,ROW,COL  LAYER,ROW,COL  LAYER,ROW,COL
 ---------------------------------------------------------------------------
  1   9.290      0 -0.2261      0 -0.4725E-02  1  0.1402    
   (  1, 20,  9)  (  1, 19,  2)  (  1, 17,  3)  (  1, 20,  2)



 OUTPUT CONTROL FOR STRESS PERIOD      3   TIME STEP      8
    SAVE HEAD FOR ALL LAYERS
    SAVE DRAWDOWN FOR ALL LAYERS
    SAVE BUDGET
    PRINT BUDGET
 UBUDSV SAVING "         STORAGE" ON UNIT    50 AT TIME STEP     8, STRESS PERIOD      3
 UBUDSV SAVING "   CONSTANT HEAD" ON UNIT    50 AT TIME STEP     8, STRESS PERIOD      3
 UBUDSV SAVING "FLOW RIGHT FACE " ON UNIT    50 AT TIME STEP     8, STRESS PERIOD      3
 UBUDSV SAVING "FLOW FRONT FACE " ON UNIT    50 AT TIME STEP     8, STRESS PERIOD      3
 UBUDSV SAVING "           WELLS" ON UNIT    50 AT TIME STEP     8, STRESS PERIOD      3
 UBUDSV SAVING "        RECHARGE" ON UNIT    50 AT TIME STEP     8, STRESS PERIOD      3

 HEAD WILL BE SAVED ON UNIT     30 AT END OF TIME STEP      8, STRESS PERIOD      3

 DRAWDOWN WILL BE SAVED ON UNIT     31 AT END OF TIME STEP      8, STRESS PERIOD      3
1
  VOLUMETRIC BUDGET FOR ENTIRE MODEL AT END OF TIME STEP     8 IN STRESS PERIOD     3
  ------------------------------------------------------------------------------

     CUMULATIVE VOLUMES      L**3       RATES FOR THIS TIME STEP      L**3/T
     ------------------                 ------------------------

           IN:                                      IN:
           ---                                      ---
             STORAGE =      129416.6641               STORAGE =           0.0000
       CONSTANT HEAD =           0.0000         CONSTANT HEAD =           0.0000
               WELLS =           0.0000                 WELLS =           0.0000
            RECHARGE =     4963445.5000              RECHARGE =      128250.0000

            TOTAL IN =     5092862.0000              TOTAL IN =      128250.0000

          OUT:                                     OUT:
          ----                                     ----
             STORAGE =     2153838.7500               STORAGE =       74126.5312
       CONSTANT HEAD =     2939554.0000         CONSTANT HEAD =       54135.4805
               WELLS =           0.0000                 WELLS =           0.0000
            RECHARGE =           0.0000              RECHARGE =           0.0000

           TOTAL OUT =     5093393.0000             TOTAL OUT =      128262.0156

            IN - OUT =        -531.0000              IN - OUT =         -12.0156

 PERCENT DISCREPANCY =          -0.01     PERCENT DISCREPANCY =          -0.01






          TIME SUMMARY AT END OF TIME STEP      8 IN STRESS PERIOD      3
                    SECONDS     MINUTES      HOURS       DAYS        YEARS
                    -----------------------------------------------------------
   TIME STEP LENGTH 5.25389E+05  8756.5      145.94      6.0809     1.66486E-02
 STRESS PERIOD TIME 2.41920E+06  40320.      672.00      28.000     7.66598E-02
         TOTAL TIME 5.18400E+06  86400.      1440.0      60.000     0.16427    
1
1
                            STRESS PERIOD NO.      4, LENGTH =   31.00000    
                            -----------------------------------------------

                              NUMBER OF TIME STEPS =     8

                               MULTIPLIER FOR DELT =     1.200

                            INITIAL TIME STEP SIZE =   1.878892    

 WELL NO.  LAYER   ROW   COL   STRESS RATE         IFACE           
 ------------------------------------------------------------------
      1      1      5      5       0.000           0.000    
      2      1     11      5       0.000           0.000    
      3      1      5      5       0.000           0.000    

      3 WELLS



                           RECHARGE
 READING ON UNIT    18 WITH FORMAT: (10e12.4)           
 
 SOLVING FOR HEAD 


     2 CALLS TO PCG ROUTINE FOR TIME STEP   1 IN STRESS PERIOD    4
     3 TOTAL ITERATIONS

 OUTPUT CONTROL FOR STRESS PERIOD      4   TIME STEP      1
    SAVE HEAD FOR ALL LAYERS
    SAVE DRAWDOWN FOR ALL LAYERS
    SAVE BUDGET
    PRINT BUDGET
 UBUDSV SAVING "         STORAGE" ON UNIT    50 AT TIME STEP     1, STRESS PERIOD      4
 UBUDSV SAVING "   CONSTANT HEAD" ON UNIT    50 AT TIME STEP     1, STRESS PERIOD      4
 UBUDSV SAVING "FLOW RIGHT FACE " ON UNIT    50 AT TIME STEP     1, STRESS PERIOD      4
 UBUDSV SAVING "FLOW FRONT FACE " ON UNIT    50 AT TIME STEP     1, STRESS PERIOD      4
 UBUDSV SAVING "           WELLS" ON UNIT    50 AT TIME STEP     1, STRESS PERIOD      4
 UBUDSV SAVING "        RECHARGE" ON UNIT    50 AT TIME STEP     1, STRESS PERIOD      4

 HEAD WILL BE SAVED ON UNIT     30 AT END OF TIME STEP      1, STRESS PERIOD      4

 DRAWDOWN WILL BE SAVED ON UNIT     31 AT END OF TIME STEP      1, STRESS PERIOD      4
1
  VOLUMETRIC BUDGET FOR ENTIRE MODEL AT END OF TIME STEP     1 IN STRESS PERIOD     4
  ------------------------------------------------------------------------------

     CUMULATIVE VOLUMES      L**3       RATES FOR THIS TIME STEP      L**3/T
     ------------------                 ------------------------

           IN:                                      IN:
           ---                                      ---
             STORAGE =      129416.6641               STORAGE =           0.0000
       CONSTANT HEAD =           0.0000         CONSTANT HEAD =           0.0000
               WELLS =           0.0000                 WELLS =           0.0000
            RECHARGE =     5284736.0000              RECHARGE =      171000.0000

            TOTAL IN =     5414152.5000              TOTAL IN =      171000.0000

          OUT:                                     OUT:
          ----                                     ----
             STORAGE =     2371930.0000               STORAGE =      116074.3750
       CONSTANT HEAD =     3042653.2500         CONSTANT HEAD =       54872.3633
               WELLS =           0.0000                 WELLS =           0.0000
            RECHARGE =           0.0000              RECHARGE =           0.0000

           TOTAL OUT =     5414583.0000             TOTAL OUT =      170946.7344

            IN - OUT =        -430.5000              IN - OUT =          53.2656

 PERCENT DISCREPANCY =          -0.01     PERCENT DISCREPANCY =           0.03






          TIME SUMMARY AT END OF TIME STEP      1 IN STRESS PERIOD      4
                    SECONDS     MINUTES      HOURS       DAYS        YEARS
                    -----------------------------------------------------------
   TIME STEP LENGTH 1.62336E+05  2705.6      45.093      1.8789     5.14413E-03
 STRESS PERIOD TIME 1.62336E+05  2705.6      45.093      1.8789     5.14413E-03
         TOTAL TIME 5.34634E+06  89106.      1485.1      61.879     0.16942    
1
 
 SOLVING FOR HEAD 
     2 CALLS TO PCG ROUTINE FOR TIME STEP   2 IN STRESS PERIOD    4
     3 TOTAL ITERATIONS

 OUTPUT CONTROL FOR STRESS PERIOD      4   TIME STEP      2
    SAVE HEAD FOR ALL LAYERS
    SAVE DRAWDOWN FOR ALL LAYERS
    SAVE BUDGET
    PRINT BUDGET
 UBUDSV SAVING "         STORAGE" ON UNIT    50 AT TIME STEP     2, STRESS PERIOD      4
 UBUDSV SAVING "   CONSTANT HEAD" ON UNIT    50 AT TIME STEP     2, STRESS PERIOD      4
 UBUDSV SAVING "FLOW RIGHT FACE " ON UNIT    50 AT TIME STEP     2, STRESS PERIOD      4
 UBUDSV SAVING "FLOW FRONT FACE " ON UNIT    50 AT TIME STEP     2, STRESS PERIOD      4
 UBUDSV SAVING "           WELLS" ON UNIT    50 AT TIME STEP     2, STRESS PERIOD      4
 UBUDSV SAVING "        RECHARGE" ON UNIT    50 AT TIME STEP     2, STRESS PERIOD      4

 HEAD WILL BE SAVED ON UNIT     30 AT END OF TIME STEP      2, STRESS PERIOD      4

 DRAWDOWN WILL BE SAVED ON UNIT     31 AT END OF TIME STEP      2, STRESS PERIOD      4
1
  VOLUMETRIC BUDGET FOR ENTIRE MODEL AT END OF TIME STEP     2 IN STRESS PERIOD     4
  ------------------------------------------------------------------------------

     CUMULATIVE VOLUMES      L**3       RATES FOR THIS TIME STEP      L**3/T
     ------------------                 ------------------------

           IN:                                      IN:
           ---                                      ---
             STORAGE =      129416.6641               STORAGE =           0.0000
       CONSTANT HEAD =           0.0000         CONSTANT HEAD =           0.0000
               WELLS =           0.0000                 WELLS =           0.0000
            RECHARGE =     5670284.5000              RECHARGE =      171000.0000

            TOTAL IN =     5799701.0000              TOTAL IN =      171000.0000

          OUT:                                     OUT:
          ----                                     ----
             STORAGE =     2631726.5000               STORAGE =      115225.9375
       CONSTANT HEAD =     3168264.5000         CONSTANT HEAD =       55711.5664
               WELLS =           0.0000                 WELLS =           0.0000
            RECHARGE =           0.0000              RECHARGE =           0.0000

           TOTAL OUT =     5799991.0000             TOTAL OUT =      170937.5000

            IN - OUT =        -290.0000              IN - OUT =          62.5000

 PERCENT DISCREPANCY =          -0.01     PERCENT DISCREPANCY =           0.04






          TIME SUMMARY AT END OF TIME STEP      2 IN STRESS PERIOD      4
                    SECONDS     MINUTES      HOURS       DAYS        YEARS
                    -----------------------------------------------------------
   TIME STEP LENGTH 1.94804E+05  3246.7      54.112      2.2547     6.17295E-03
 STRESS PERIOD TIME 3.57140E+05  5952.3      99.205      4.1336     1.13171E-02
         TOTAL TIME 5.54114E+06  92352.      1539.2      64.134     0.17559    
1
 
 SOLVING FOR HEAD 
     2 CALLS TO PCG ROUTINE FOR TIME STEP   3 IN STRESS PERIOD    4
     3 TOTAL ITERATIONS

 OUTPUT CONTROL FOR STRESS PERIOD      4   TIME STEP      3
    SAVE HEAD FOR ALL LAYERS
    SAVE DRAWDOWN FOR ALL LAYERS
    SAVE BUDGET
    PRINT BUDGET
 UBUDSV SAVING "         STORAGE" ON UNIT    50 AT TIME STEP     3, STRESS PERIOD      4
 UBUDSV SAVING "   CONSTANT HEAD" ON UNIT    50 AT TIME STEP     3, STRESS PERIOD      4
 UBUDSV SAVING "FLOW RIGHT FACE " ON UNIT    50 AT TIME STEP     3, STRESS PERIOD      4
 UBUDSV SAVING "FLOW FRONT FACE " ON UNIT    50 AT TIME STEP     3, STRESS PERIOD      4
 UBUDSV SAVING "           WELLS" ON UNIT    50 AT TIME STEP     3, STRESS PERIOD      4
 UBUDSV SAVING "        RECHARGE" ON UNIT    50 AT TIME STEP     3, STRESS PERIOD      4

 HEAD WILL BE SAVED ON UNIT     30 AT END OF TIME STEP      3, STRESS PERIOD      4

 DRAWDOWN WILL BE SAVED ON UNIT     31 AT END OF TIME STEP      3, STRESS PERIOD      4
1
  VOLUMETRIC BUDGET FOR ENTIRE MODEL AT END OF TIME STEP     3 IN STRESS PERIOD     4
  ------------------------------------------------------------------------------

     CUMULATIVE VOLUMES      L**3       RATES FOR THIS TIME STEP      L**3/T
     ------------------                 ------------------------

           IN:                                      IN:
           ---                                      ---
             STORAGE =      129416.6641               STORAGE =           0.0000
       CONSTANT HEAD =           0.0000         CONSTANT HEAD =           0.0000
               WELLS =           0.0000                 WELLS =           0.0000
            RECHARGE =     6132943.0000              RECHARGE =      171000.0000

            TOTAL IN =     6262359.5000              TOTAL IN =      171000.0000

          OUT:                                     OUT:
          ----                                     ----
             STORAGE =     2941048.5000               STORAGE =      114326.4375
       CONSTANT HEAD =     3321582.7500         CONSTANT HEAD =       56666.9336
               WELLS =           0.0000                 WELLS =           0.0000
            RECHARGE =           0.0000              RECHARGE =           0.0000

           TOTAL OUT =     6262631.0000             TOTAL OUT =      170993.3750

            IN - OUT =        -271.5000              IN - OUT =           6.6250

 PERCENT DISCREPANCY =          -0.00     PERCENT DISCREPANCY =           0.00






          TIME SUMMARY AT END OF TIME STEP      3 IN STRESS PERIOD      4
                    SECONDS     MINUTES      HOURS       DAYS        YEARS
                    -----------------------------------------------------------
   TIME STEP LENGTH 2.33764E+05  3896.1      64.935      2.7056     7.40754E-03
 STRESS PERIOD TIME 5.90904E+05  9848.4      164.14      6.8392     1.87246E-02
         TOTAL TIME 5.77490E+06  96248.      1604.1      66.839     0.18300    
1
 
 SOLVING FOR HEAD 
     2 CALLS TO PCG ROUTINE FOR TIME STEP   4 IN STRESS PERIOD    4
     3 TOTAL ITERATIONS

 OUTPUT CONTROL FOR STRESS PERIOD      4   TIME STEP      4
    SAVE HEAD FOR ALL LAYERS
    SAVE DRAWDOWN FOR ALL LAYERS
    SAVE BUDGET
    PRINT BUDGET
 UBUDSV SAVING "         STORAGE" ON UNIT    50 AT TIME STEP     4, STRESS PERIOD      4
 UBUDSV SAVING "   CONSTANT HEAD" ON UNIT    50 AT TIME STEP     4, STRESS PERIOD      4
 UBUDSV SAVING "FLOW RIGHT FACE " ON UNIT    50 AT TIME STEP     4, STRESS PERIOD      4
 UBUDSV SAVING "FLOW FRONT FACE " ON UNIT    50 AT TIME STEP     4, STRESS PERIOD      4
 UBUDSV SAVING "           WELLS" ON UNIT    50 AT TIME STEP     4, STRESS PERIOD      4
 UBUDSV SAVING "        RECHARGE" ON UNIT    50 AT TIME STEP     4, STRESS PERIOD      4

 HEAD WILL BE SAVED ON UNIT     30 AT END OF TIME STEP      4, STRESS PERIOD      4

 DRAWDOWN WILL BE SAVED ON UNIT     31 AT END OF TIME STEP      4, STRESS PERIOD      4
1
  VOLUMETRIC BUDGET FOR ENTIRE MODEL AT END OF TIME STEP     4 IN STRESS PERIOD     4
  ------------------------------------------------------------------------------

     CUMULATIVE VOLUMES      L**3       RATES FOR THIS TIME STEP      L**3/T
     ------------------                 ------------------------

           IN:                                      IN:
           ---                                      ---
             STORAGE =      129416.6641               STORAGE =           0.0000
       CONSTANT HEAD =           0.0000         CONSTANT HEAD =           0.0000
               WELLS =           0.0000                 WELLS =           0.0000
            RECHARGE =     6688133.0000              RECHARGE =      171000.0000

            TOTAL IN =     6817549.5000              TOTAL IN =      171000.0000

          OUT:                                     OUT:
          ----                                     ----
             STORAGE =     3308701.7500               STORAGE =      113238.1875
       CONSTANT HEAD =     3509076.7500         CONSTANT HEAD =       57748.6250
               WELLS =           0.0000                 WELLS =           0.0000
            RECHARGE =           0.0000              RECHARGE =           0.0000

           TOTAL OUT =     6817778.5000             TOTAL OUT =      170986.8125

            IN - OUT =        -229.0000              IN - OUT =          13.1875

 PERCENT DISCREPANCY =          -0.00     PERCENT DISCREPANCY =           0.01






          TIME SUMMARY AT END OF TIME STEP      4 IN STRESS PERIOD      4
                    SECONDS     MINUTES      HOURS       DAYS        YEARS
                    -----------------------------------------------------------
   TIME STEP LENGTH 2.80517E+05  4675.3      77.921      3.2467     8.88905E-03
 STRESS PERIOD TIME 8.71421E+05  14524.      242.06      10.086     2.76137E-02
         TOTAL TIME 6.05542E+06 1.00924E+05  1682.1      70.086     0.19188    
1
 
 SOLVING FOR HEAD 
     2 CALLS TO PCG ROUTINE FOR TIME STEP   5 IN STRESS PERIOD    4
     3 TOTAL ITERATIONS

 MAXIMUM HEAD CHANGE FOR EACH ITERATION (1 INDICATES THE FIRST INNER ITERATION):

    HEAD CHANGE    HEAD CHANGE    HEAD CHANGE    HEAD CHANGE    HEAD CHANGE 
   LAYER,ROW,COL  LAYER,ROW,COL  LAYER,ROW,COL  LAYER,ROW,COL  LAYER,ROW,COL
 ---------------------------------------------------------------------------
  1  0.1116      0 -0.8057E-03  1  0.4913E-03
   (  1, 11,  2)  (  1, 20,  9)  (  1, 20,  3)

 MAXIMUM RESIDUAL FOR EACH ITERATION (1 INDICATES THE FIRST INNER ITERATION):

    RESIDUAL       RESIDUAL       RESIDUAL       RESIDUAL       RESIDUAL    
   LAYER,ROW,COL  LAYER,ROW,COL  LAYER,ROW,COL  LAYER,ROW,COL  LAYER,ROW,COL
 ---------------------------------------------------------------------------
  1   6.858      0 -0.9135E-01  1  0.7513E-01
   (  1, 20,  9)  (  1, 19,  2)  (  1, 20,  2)



 OUTPUT CONTROL FOR STRESS PERIOD      4   TIME STEP      5
    SAVE HEAD FOR ALL LAYERS
    SAVE DRAWDOWN FOR ALL LAYERS
    SAVE BUDGET
    PRINT BUDGET
 UBUDSV SAVING "         STORAGE" ON UNIT    50 AT TIME STEP     5, STRESS PERIOD      4
 UBUDSV SAVING "   CONSTANT HEAD" ON UNIT    50 AT TIME STEP     5, STRESS PERIOD      4
 UBUDSV SAVING "FLOW RIGHT FACE " ON UNIT    50 AT TIME STEP     5, STRESS PERIOD      4
 UBUDSV SAVING "FLOW FRONT FACE " ON UNIT    50 AT TIME STEP     5, STRESS PERIOD      4
 UBUDSV SAVING "           WELLS" ON UNIT    50 AT TIME STEP     5, STRESS PERIOD      4
 UBUDSV SAVING "        RECHARGE" ON UNIT    50 AT TIME STEP     5, STRESS PERIOD      4

 HEAD WILL BE SAVED ON UNIT     30 AT END OF TIME STEP      5, STRESS PERIOD      4

 DRAWDOWN WILL BE SAVED ON UNIT     31 AT END OF TIME STEP      5, STRESS PERIOD      4
1
  VOLUMETRIC BUDGET FOR ENTIRE MODEL AT END OF TIME STEP     5 IN STRESS PERIOD     4
  ------------------------------------------------------------------------------

     CUMULATIVE VOLUMES      L**3       RATES FOR THIS TIME STEP      L**3/T
     ------------------                 ------------------------

           IN:                                      IN:
           ---                                      ---
             STORAGE =      129416.6641               STORAGE =           0.0000
       CONSTANT HEAD =           0.0000         CONSTANT HEAD =           0.0000
               WELLS =           0.0000                 WELLS =           0.0000
            RECHARGE =     7354361.0000              RECHARGE =      171000.0000

            TOTAL IN =     7483777.5000              TOTAL IN =      171000.0000

          OUT:                                     OUT:
          ----                                     ----
             STORAGE =     3745230.0000               STORAGE =      112043.1875
       CONSTANT HEAD =     3738831.7500         CONSTANT HEAD =       58970.9297
               WELLS =           0.0000                 WELLS =           0.0000
            RECHARGE =           0.0000              RECHARGE =           0.0000

           TOTAL OUT =     7484062.0000             TOTAL OUT =      171014.1250

            IN - OUT =        -284.5000              IN - OUT =         -14.1250

 PERCENT DISCREPANCY =          -0.00     PERCENT DISCREPANCY =          -0.01






          TIME SUMMARY AT END OF TIME STEP      5 IN STRESS PERIOD      4
                    SECONDS     MINUTES      HOURS       DAYS        YEARS
                    -----------------------------------------------------------
   TIME STEP LENGTH 3.36620E+05  5610.3      93.506      3.8961     1.06669E-02
 STRESS PERIOD TIME 1.20804E+06  20134.      335.57      13.982     3.82805E-02
         TOTAL TIME 6.39204E+06 1.06534E+05  1775.6      73.982     0.20255    
1
 
 SOLVING FOR HEAD 
     2 CALLS TO PCG ROUTINE FOR TIME STEP   6 IN STRESS PERIOD    4
     4 TOTAL ITERATIONS

 OUTPUT CONTROL FOR STRESS PERIOD      4   TIME STEP      6
    SAVE HEAD FOR ALL LAYERS
    SAVE DRAWDOWN FOR ALL LAYERS
    SAVE BUDGET
    PRINT BUDGET
 UBUDSV SAVING "         STORAGE" ON UNIT    50 AT TIME STEP     6, STRESS PERIOD      4
 UBUDSV SAVING "   CONSTANT HEAD" ON UNIT    50 AT TIME STEP     6, STRESS PERIOD      4
 UBUDSV SAVING "FLOW RIGHT FACE " ON UNIT    50 AT TIME STEP     6, STRESS PERIOD      4
 UBUDSV SAVING "FLOW FRONT FACE " ON UNIT    50 AT TIME STEP     6, STRESS PERIOD      4
 UBUDSV SAVING "           WELLS" ON UNIT    50 AT TIME STEP     6, STRESS PERIOD      4
 UBUDSV SAVING "        RECHARGE" ON UNIT    50 AT TIME STEP     6, STRESS PERIOD      4

 HEAD WILL BE SAVED ON UNIT     30 AT END OF TIME STEP      6, STRESS PERIOD      4

 DRAWDOWN WILL BE SAVED ON UNIT     31 AT END OF TIME STEP      6, STRESS PERIOD      4
1
  VOLUMETRIC BUDGET FOR ENTIRE MODEL AT END OF TIME STEP     6 IN STRESS PERIOD     4
  ------------------------------------------------------------------------------

     CUMULATIVE VOLUMES      L**3       RATES FOR THIS TIME STEP      L**3/T
     ------------------                 ------------------------

           IN:                                      IN:
           ---                                      ---
             STORAGE =      129416.6641               STORAGE =           0.0000
       CONSTANT HEAD =           0.0000         CONSTANT HEAD =           0.0000
               WELLS =           0.0000                 WELLS =           0.0000
[...]
                    -----------------------------------------------------------
   TIME STEP LENGTH 1.94804E+05  3246.7      54.112      2.2547     6.17295E-03
 STRESS PERIOD TIME 3.57140E+05  5952.3      99.205      4.1336     1.13171E-02
         TOTAL TIME 6.08372E+07 1.01395E+06  16899.      704.13      1.9278    
1
 
 SOLVING FOR HEAD 
     3 CALLS TO PCG ROUTINE FOR TIME STEP   3 IN STRESS PERIOD   25
     5 TOTAL ITERATIONS

 OUTPUT CONTROL FOR STRESS PERIOD     25   TIME STEP      3
    SAVE HEAD FOR ALL LAYERS
    SAVE DRAWDOWN FOR ALL LAYERS
    SAVE BUDGET
    PRINT BUDGET
 UBUDSV SAVING "         STORAGE" ON UNIT    50 AT TIME STEP     3, STRESS PERIOD     25
 UBUDSV SAVING "   CONSTANT HEAD" ON UNIT    50 AT TIME STEP     3, STRESS PERIOD     25
 UBUDSV SAVING "FLOW RIGHT FACE " ON UNIT    50 AT TIME STEP     3, STRESS PERIOD     25
 UBUDSV SAVING "FLOW FRONT FACE " ON UNIT    50 AT TIME STEP     3, STRESS PERIOD     25
 UBUDSV SAVING "           WELLS" ON UNIT    50 AT TIME STEP     3, STRESS PERIOD     25
 UBUDSV SAVING "        RECHARGE" ON UNIT    50 AT TIME STEP     3, STRESS PERIOD     25

 HEAD WILL BE SAVED ON UNIT     30 AT END OF TIME STEP      3, STRESS PERIOD     25

 DRAWDOWN WILL BE SAVED ON UNIT     31 AT END OF TIME STEP      3, STRESS PERIOD     25
1
  VOLUMETRIC BUDGET FOR ENTIRE MODEL AT END OF TIME STEP     3 IN STRESS PERIOD    25
  ------------------------------------------------------------------------------

     CUMULATIVE VOLUMES      L**3       RATES FOR THIS TIME STEP      L**3/T
     ------------------                 ------------------------

           IN:                                      IN:
           ---                                      ---
             STORAGE =    21056990.0000               STORAGE =       28474.6250
       CONSTANT HEAD =           0.0000         CONSTANT HEAD =           0.0000
               WELLS =           0.0000                 WELLS =           0.0000
            RECHARGE =    33572584.0000              RECHARGE =       21375.0000

            TOTAL IN =    54629576.0000              TOTAL IN =       49849.6250

          OUT:                                     OUT:
          ----                                     ----
             STORAGE =    13884811.0000               STORAGE =          70.8750
       CONSTANT HEAD =    33923336.0000         CONSTANT HEAD =       29776.3164
               WELLS =     6816784.5000                 WELLS =       20000.0000
            RECHARGE =           0.0000              RECHARGE =           0.0000

           TOTAL OUT =    54624932.0000             TOTAL OUT =       49847.1914

            IN - OUT =        4644.0000              IN - OUT =           2.4336

 PERCENT DISCREPANCY =           0.01     PERCENT DISCREPANCY =           0.00






          TIME SUMMARY AT END OF TIME STEP      3 IN STRESS PERIOD     25
                    SECONDS     MINUTES      HOURS       DAYS        YEARS
                    -----------------------------------------------------------
   TIME STEP LENGTH 2.33764E+05  3896.1      64.935      2.7056     7.40754E-03
 STRESS PERIOD TIME 5.90904E+05  9848.4      164.14      6.8392     1.87246E-02
         TOTAL TIME 6.10709E+07 1.01785E+06  16964.      706.84      1.9352    
1
 
 SOLVING FOR HEAD 
     3 CALLS TO PCG ROUTINE FOR TIME STEP   4 IN STRESS PERIOD   25
     5 TOTAL ITERATIONS

 OUTPUT CONTROL FOR STRESS PERIOD     25   TIME STEP      4
    SAVE HEAD FOR ALL LAYERS
    SAVE DRAWDOWN FOR ALL LAYERS
    SAVE BUDGET
    PRINT BUDGET
 UBUDSV SAVING "         STORAGE" ON UNIT    50 AT TIME STEP     4, STRESS PERIOD     25
 UBUDSV SAVING "   CONSTANT HEAD" ON UNIT    50 AT TIME STEP     4, STRESS PERIOD     25
 UBUDSV SAVING "FLOW RIGHT FACE " ON UNIT    50 AT TIME STEP     4, STRESS PERIOD     25
 UBUDSV SAVING "FLOW FRONT FACE " ON UNIT    50 AT TIME STEP     4, STRESS PERIOD     25
 UBUDSV SAVING "           WELLS" ON UNIT    50 AT TIME STEP     4, STRESS PERIOD     25
 UBUDSV SAVING "        RECHARGE" ON UNIT    50 AT TIME STEP     4, STRESS PERIOD     25

 HEAD WILL BE SAVED ON UNIT     30 AT END OF TIME STEP      4, STRESS PERIOD     25

 DRAWDOWN WILL BE SAVED ON UNIT     31 AT END OF TIME STEP      4, STRESS PERIOD     25
1
  VOLUMETRIC BUDGET FOR ENTIRE MODEL AT END OF TIME STEP     4 IN STRESS PERIOD    25
  ------------------------------------------------------------------------------

     CUMULATIVE VOLUMES      L**3       RATES FOR THIS TIME STEP      L**3/T
     ------------------                 ------------------------

           IN:                                      IN:
           ---                                      ---
             STORAGE =    21149176.0000               STORAGE =       28393.3750
       CONSTANT HEAD =           0.0000         CONSTANT HEAD =           0.0000
               WELLS =           0.0000                 WELLS =           0.0000
            RECHARGE =    33641984.0000              RECHARGE =       21375.0000

            TOTAL IN =    54791160.0000              TOTAL IN =       49768.3750

          OUT:                                     OUT:
          ----                                     ----
             STORAGE =    13884853.0000               STORAGE =          12.8125
       CONSTANT HEAD =    34019912.0000         CONSTANT HEAD =       29745.5156
               WELLS =     6881719.0000                 WELLS =       20000.0000
            RECHARGE =           0.0000              RECHARGE =           0.0000

           TOTAL OUT =    54786484.0000             TOTAL OUT =       49758.3281

            IN - OUT =        4676.0000              IN - OUT =          10.0469

 PERCENT DISCREPANCY =           0.01     PERCENT DISCREPANCY =           0.02






          TIME SUMMARY AT END OF TIME STEP      4 IN STRESS PERIOD     25
                    SECONDS     MINUTES      HOURS       DAYS        YEARS
                    -----------------------------------------------------------
   TIME STEP LENGTH 2.80517E+05  4675.3      77.921      3.2467     8.88905E-03
 STRESS PERIOD TIME 8.71421E+05  14524.      242.06      10.086     2.76137E-02
         TOTAL TIME 6.13515E+07 1.02252E+06  17042.      710.09      1.9441    
1
 
 SOLVING FOR HEAD 
     3 CALLS TO PCG ROUTINE FOR TIME STEP   5 IN STRESS PERIOD   25
     5 TOTAL ITERATIONS

 MAXIMUM HEAD CHANGE FOR EACH ITERATION (1 INDICATES THE FIRST INNER ITERATION):

    HEAD CHANGE    HEAD CHANGE    HEAD CHANGE    HEAD CHANGE    HEAD CHANGE 
   LAYER,ROW,COL  LAYER,ROW,COL  LAYER,ROW,COL  LAYER,ROW,COL  LAYER,ROW,COL
 ---------------------------------------------------------------------------
  1 -0.4602E-01  0  0.2725E-03  1 -0.4346E-02  0 -0.4167E-04  1 -0.2654E-03
   (  1,  5,  5)  (  1,  5,  5)  (  1,  5,  5)  (  1,  6,  4)  (  1,  5,  5)

 MAXIMUM RESIDUAL FOR EACH ITERATION (1 INDICATES THE FIRST INNER ITERATION):

    RESIDUAL       RESIDUAL       RESIDUAL       RESIDUAL       RESIDUAL    
   LAYER,ROW,COL  LAYER,ROW,COL  LAYER,ROW,COL  LAYER,ROW,COL  LAYER,ROW,COL
 ---------------------------------------------------------------------------
  1  -2.436      0 -0.2698E-01  1  0.4680      0  0.6030E-02  1  0.3206E-01
   (  1,  5,  5)  (  1,  6,  4)  (  1,  6,  4)  (  1,  7,  3)  (  1,  6,  4)



 OUTPUT CONTROL FOR STRESS PERIOD     25   TIME STEP      5
    SAVE HEAD FOR ALL LAYERS
    SAVE DRAWDOWN FOR ALL LAYERS
    SAVE BUDGET
    PRINT BUDGET
 UBUDSV SAVING "         STORAGE" ON UNIT    50 AT TIME STEP     5, STRESS PERIOD     25
 UBUDSV SAVING "   CONSTANT HEAD" ON UNIT    50 AT TIME STEP     5, STRESS PERIOD     25
 UBUDSV SAVING "FLOW RIGHT FACE " ON UNIT    50 AT TIME STEP     5, STRESS PERIOD     25
 UBUDSV SAVING "FLOW FRONT FACE " ON UNIT    50 AT TIME STEP     5, STRESS PERIOD     25
 UBUDSV SAVING "           WELLS" ON UNIT    50 AT TIME STEP     5, STRESS PERIOD     25
 UBUDSV SAVING "        RECHARGE" ON UNIT    50 AT TIME STEP     5, STRESS PERIOD     25

 HEAD WILL BE SAVED ON UNIT     30 AT END OF TIME STEP      5, STRESS PERIOD     25

 DRAWDOWN WILL BE SAVED ON UNIT     31 AT END OF TIME STEP      5, STRESS PERIOD     25
1
  VOLUMETRIC BUDGET FOR ENTIRE MODEL AT END OF TIME STEP     5 IN STRESS PERIOD    25
  ------------------------------------------------------------------------------

     CUMULATIVE VOLUMES      L**3       RATES FOR THIS TIME STEP      L**3/T
     ------------------                 ------------------------

           IN:                                      IN:
           ---                                      ---
             STORAGE =    21259392.0000               STORAGE =       28289.2500
       CONSTANT HEAD =           0.0000         CONSTANT HEAD =           0.0000
               WELLS =           0.0000                 WELLS =           0.0000
            RECHARGE =    33725264.0000              RECHARGE =       21375.0000

            TOTAL IN =    54984656.0000              TOTAL IN =       49664.2500

          OUT:                                     OUT:
          ----                                     ----
             STORAGE =    13884853.0000               STORAGE =           0.0000
       CONSTANT HEAD =    34135592.0000         CONSTANT HEAD =       29691.4043
               WELLS =     6959640.5000                 WELLS =       20000.0000
            RECHARGE =           0.0000              RECHARGE =           0.0000

           TOTAL OUT =    54980084.0000             TOTAL OUT =       49691.4062

            IN - OUT =        4572.0000              IN - OUT =         -27.1562

 PERCENT DISCREPANCY =           0.01     PERCENT DISCREPANCY =          -0.05






          TIME SUMMARY AT END OF TIME STEP      5 IN STRESS PERIOD     25
                    SECONDS     MINUTES      HOURS       DAYS        YEARS
                    -----------------------------------------------------------
   TIME STEP LENGTH 3.36620E+05  5610.3      93.506      3.8961     1.06669E-02
 STRESS PERIOD TIME 1.20804E+06  20134.      335.57      13.982     3.82805E-02
         TOTAL TIME 6.16881E+07 1.02813E+06  17136.      713.98      1.9548    
1
 
 SOLVING FOR HEAD 
     3 CALLS TO PCG ROUTINE FOR TIME STEP   6 IN STRESS PERIOD   25
     5 TOTAL ITERATIONS

 OUTPUT CONTROL FOR STRESS PERIOD     25   TIME STEP      6
    SAVE HEAD FOR ALL LAYERS
    SAVE DRAWDOWN FOR ALL LAYERS
    SAVE BUDGET
    PRINT BUDGET
 UBUDSV SAVING "         STORAGE" ON UNIT    50 AT TIME STEP     6, STRESS PERIOD     25
 UBUDSV SAVING "   CONSTANT HEAD" ON UNIT    50 AT TIME STEP     6, STRESS PERIOD     25
 UBUDSV SAVING "FLOW RIGHT FACE " ON UNIT    50 AT TIME STEP     6, STRESS PERIOD     25
 UBUDSV SAVING "FLOW FRONT FACE " ON UNIT    50 AT TIME STEP     6, STRESS PERIOD     25
 UBUDSV SAVING "           WELLS" ON UNIT    50 AT TIME STEP     6, STRESS PERIOD     25
 UBUDSV SAVING "        RECHARGE" ON UNIT    50 AT TIME STEP     6, STRESS PERIOD     25

 HEAD WILL BE SAVED ON UNIT     30 AT END OF TIME STEP      6, STRESS PERIOD     25

 DRAWDOWN WILL BE SAVED ON UNIT     31 AT END OF TIME STEP      6, STRESS PERIOD     25
1
  VOLUMETRIC BUDGET FOR ENTIRE MODEL AT END OF TIME STEP     6 IN STRESS PERIOD    25
  ------------------------------------------------------------------------------

     CUMULATIVE VOLUMES      L**3       RATES FOR THIS TIME STEP      L**3/T
     ------------------                 ------------------------

           IN:                                      IN:
           ---                                      ---
             STORAGE =    21391290.0000               STORAGE =       28211.9375
       CONSTANT HEAD =           0.0000         CONSTANT HEAD =           0.0000
               WELLS =           0.0000                 WELLS =           0.0000
            RECHARGE =    33825200.0000              RECHARGE =       21375.0000

            TOTAL IN =    55216488.0000              TOTAL IN =       49586.9375

          OUT:                                     OUT:
          ----                                     ----
             STORAGE =    13884853.0000               STORAGE =           0.0000
       CONSTANT HEAD =    34274012.0000         CONSTANT HEAD =       29606.4590
               WELLS =     7053146.0000                 WELLS =       20000.0000
            RECHARGE =           0.0000              RECHARGE =           0.0000

           TOTAL OUT =    55212008.0000             TOTAL OUT =       49606.4609

            IN - OUT =        4480.0000              IN - OUT =         -19.5234

 PERCENT DISCREPANCY =           0.01     PERCENT DISCREPANCY =          -0.04






          TIME SUMMARY AT END OF TIME STEP      6 IN STRESS PERIOD     25
                    SECONDS     MINUTES      HOURS       DAYS        YEARS
                    -----------------------------------------------------------
   TIME STEP LENGTH 4.03945E+05  6732.4      112.21      4.6753     1.28002E-02
 STRESS PERIOD TIME 1.61199E+06  26866.      447.77      18.657     5.10808E-02
         TOTAL TIME 6.20920E+07 1.03487E+06  17248.      718.66      1.9676    
1
 
 SOLVING FOR HEAD 
     3 CALLS TO PCG ROUTINE FOR TIME STEP   7 IN STRESS PERIOD   25
     5 TOTAL ITERATIONS

 OUTPUT CONTROL FOR STRESS PERIOD     25   TIME STEP      7
    SAVE HEAD FOR ALL LAYERS
    SAVE DRAWDOWN FOR ALL LAYERS
    SAVE BUDGET
    PRINT BUDGET
 UBUDSV SAVING "         STORAGE" ON UNIT    50 AT TIME STEP     7, STRESS PERIOD     25
 UBUDSV SAVING "   CONSTANT HEAD" ON UNIT    50 AT TIME STEP     7, STRESS PERIOD     25
 UBUDSV SAVING "FLOW RIGHT FACE " ON UNIT    50 AT TIME STEP     7, STRESS PERIOD     25
 UBUDSV SAVING "FLOW FRONT FACE " ON UNIT    50 AT TIME STEP     7, STRESS PERIOD     25
 UBUDSV SAVING "           WELLS" ON UNIT    50 AT TIME STEP     7, STRESS PERIOD     25
 UBUDSV SAVING "        RECHARGE" ON UNIT    50 AT TIME STEP     7, STRESS PERIOD     25

 HEAD WILL BE SAVED ON UNIT     30 AT END OF TIME STEP      7, STRESS PERIOD     25

 DRAWDOWN WILL BE SAVED ON UNIT     31 AT END OF TIME STEP      7, STRESS PERIOD     25
1
  VOLUMETRIC BUDGET FOR ENTIRE MODEL AT END OF TIME STEP     7 IN STRESS PERIOD    25
  ------------------------------------------------------------------------------

     CUMULATIVE VOLUMES      L**3       RATES FOR THIS TIME STEP      L**3/T
     ------------------                 ------------------------

           IN:                                      IN:
           ---                                      ---
             STORAGE =    21548810.0000               STORAGE =       28076.6875
       CONSTANT HEAD =           0.0000         CONSTANT HEAD =           0.0000
               WELLS =           0.0000                 WELLS =           0.0000
            RECHARGE =    33945120.0000              RECHARGE =       21375.0000

            TOTAL IN =    55493928.0000              TOTAL IN =       49451.6875

          OUT:                                     OUT:
          ----                                     ----
             STORAGE =    13884853.0000               STORAGE =           0.0000
       CONSTANT HEAD =    34439432.0000         CONSTANT HEAD =       29484.5391
               WELLS =     7165353.0000                 WELLS =       20000.0000
            RECHARGE =           0.0000              RECHARGE =           0.0000

           TOTAL OUT =    55489636.0000             TOTAL OUT =       49484.5391

            IN - OUT =        4292.0000              IN - OUT =         -32.8516

 PERCENT DISCREPANCY =           0.01     PERCENT DISCREPANCY =          -0.07






          TIME SUMMARY AT END OF TIME STEP      7 IN STRESS PERIOD     25
                    SECONDS     MINUTES      HOURS       DAYS        YEARS
                    -----------------------------------------------------------
   TIME STEP LENGTH 4.84734E+05  8078.9      134.65      5.6103     1.53603E-02
 STRESS PERIOD TIME 2.09672E+06  34945.      582.42      24.268     6.64410E-02
         TOTAL TIME 6.25768E+07 1.04295E+06  17382.      724.27      1.9829    
1
 
 SOLVING FOR HEAD 
     3 CALLS TO PCG ROUTINE FOR TIME STEP   8 IN STRESS PERIOD   25
     5 TOTAL ITERATIONS

 MAXIMUM HEAD CHANGE FOR EACH ITERATION (1 INDICATES THE FIRST INNER ITERATION):

    HEAD CHANGE    HEAD CHANGE    HEAD CHANGE    HEAD CHANGE    HEAD CHANGE 
   LAYER,ROW,COL  LAYER,ROW,COL  LAYER,ROW,COL  LAYER,ROW,COL  LAYER,ROW,COL
 ---------------------------------------------------------------------------
  1 -0.7144E-01  0  0.7221E-03  1 -0.9637E-02  0 -0.1697E-03  1 -0.8323E-03
   (  1,  5,  5)  (  1,  5,  5)  (  1,  5,  5)  (  1,  6,  4)  (  1,  5,  5)

 MAXIMUM RESIDUAL FOR EACH ITERATION (1 INDICATES THE FIRST INNER ITERATION):

    RESIDUAL       RESIDUAL       RESIDUAL       RESIDUAL       RESIDUAL    
   LAYER,ROW,COL  LAYER,ROW,COL  LAYER,ROW,COL  LAYER,ROW,COL  LAYER,ROW,COL
 ---------------------------------------------------------------------------
  1  -4.351      0  0.8975E-01  1   1.410      0  0.3097E-01  1  0.1428    
   (  1,  5,  5)  (  1, 16,  2)  (  1,  6,  4)  (  1,  7,  3)  (  1,  6,  4)



 OUTPUT CONTROL FOR STRESS PERIOD     25   TIME STEP      8
    SAVE HEAD FOR ALL LAYERS
    SAVE DRAWDOWN FOR ALL LAYERS
    SAVE BUDGET
    PRINT BUDGET
 UBUDSV SAVING "         STORAGE" ON UNIT    50 AT TIME STEP     8, STRESS PERIOD     25
 UBUDSV SAVING "   CONSTANT HEAD" ON UNIT    50 AT TIME STEP     8, STRESS PERIOD     25
 UBUDSV SAVING "FLOW RIGHT FACE " ON UNIT    50 AT TIME STEP     8, STRESS PERIOD     25
 UBUDSV SAVING "FLOW FRONT FACE " ON UNIT    50 AT TIME STEP     8, STRESS PERIOD     25
 UBUDSV SAVING "           WELLS" ON UNIT    50 AT TIME STEP     8, STRESS PERIOD     25
 UBUDSV SAVING "        RECHARGE" ON UNIT    50 AT TIME STEP     8, STRESS PERIOD     25

 HEAD WILL BE SAVED ON UNIT     30 AT END OF TIME STEP      8, STRESS PERIOD     25

 DRAWDOWN WILL BE SAVED ON UNIT     31 AT END OF TIME STEP      8, STRESS PERIOD     25
1
  VOLUMETRIC BUDGET FOR ENTIRE MODEL AT END OF TIME STEP     8 IN STRESS PERIOD    25
  ------------------------------------------------------------------------------

     CUMULATIVE VOLUMES      L**3       RATES FOR THIS TIME STEP      L**3/T
     ------------------                 ------------------------

           IN:                                      IN:
           ---                                      ---
             STORAGE =    21736774.0000               STORAGE =       27919.3125
       CONSTANT HEAD =           0.0000         CONSTANT HEAD =           0.0000
               WELLS =           0.0000                 WELLS =           0.0000
            RECHARGE =    34089024.0000              RECHARGE =       21375.0000

            TOTAL IN =    55825800.0000              TOTAL IN =       49294.3125

          OUT:                                     OUT:
          ----                                     ----
             STORAGE =    13884853.0000               STORAGE =           0.0000
       CONSTANT HEAD =    34636808.0000         CONSTANT HEAD =       29317.0137
               WELLS =     7300001.0000                 WELLS =       20000.0000
            RECHARGE =           0.0000              RECHARGE =           0.0000

           TOTAL OUT =    55821660.0000             TOTAL OUT =       49317.0156

            IN - OUT =        4140.0000              IN - OUT =         -22.7031

 PERCENT DISCREPANCY =           0.01     PERCENT DISCREPANCY =          -0.05






          TIME SUMMARY AT END OF TIME STEP      8 IN STRESS PERIOD     25
                    SECONDS     MINUTES      HOURS       DAYS        YEARS
                    -----------------------------------------------------------
   TIME STEP LENGTH 5.81680E+05  9694.7      161.58      6.7324     1.84323E-02
 STRESS PERIOD TIME 2.67840E+06  44640.      744.00      31.000     8.48734E-02
         TOTAL TIME 6.31584E+07 1.05264E+06  17544.      731.00      2.0014    
1
